
---------- Begin Simulation Statistics ----------
simSeconds                                   2.632337                       # Number of seconds simulated (Second)
simTicks                                 2632337158500                       # Number of ticks simulated (Tick)
finalTick                                2632337158500                       # Number of ticks from beginning of simulation (restored from checkpoints and never reset) (Tick)
simFreq                                  1000000000000                       # The number of ticks per simulated second ((Tick/Second))
hostSeconds                                  37830.04                       # Real time elapsed on the host (Second)
hostTickRate                                 69583242                       # The number of ticks simulated per host second (ticks/s) ((Tick/Second))
hostMemory                                     871704                       # Number of bytes of host memory used (Byte)
simInsts                                    949757714                       # Number of instructions simulated (Count)
simOps                                      949757978                       # Number of ops (including micro ops) simulated (Count)
hostInstRate                                    25106                       # Simulator instruction rate (inst/s) ((Count/Second))
hostOpRate                                      25106                       # Simulator op (including micro ops) rate (op/s) ((Count/Second))
system.clk_domain.clock                          1000                       # Clock period in ticks (Tick)
system.cpu0.numCycles                      5264674317                       # Number of cpu cycles simulated (Cycle)
system.cpu0.cpi                           4516.137993                       # CPI: cycles per instruction (core level) ((Cycle/Count))
system.cpu0.ipc                              0.000221                       # IPC: instructions per cycle (core level) ((Count/Cycle))
system.cpu0.numWorkItemsStarted                     0                       # Number of work items this cpu started (Count)
system.cpu0.numWorkItemsCompleted                   0                       # Number of work items this cpu completed (Count)
system.cpu0.commitStats0.numInsts             1165747                       # Number of instructions committed (thread level) (Count)
system.cpu0.commitStats0.numOps               1165858                       # Number of ops (including micro ops) committed (thread level) (Count)
system.cpu0.commitStats0.numInstsNotNOP             0                       # Number of instructions committed excluding NOPs or prefetches (Count)
system.cpu0.commitStats0.numOpsNotNOP               0                       # Number of Ops (including micro ops) Simulated (Count)
system.cpu0.commitStats0.cpi              4516.137993                       # CPI: cycles per instruction (thread level) ((Cycle/Count))
system.cpu0.commitStats0.ipc                 0.000221                       # IPC: instructions per cycle (thread level) ((Count/Cycle))
system.cpu0.commitStats0.numMemRefs                 0                       # Number of memory references committed (Count)
system.cpu0.commitStats0.numFpInsts             28889                       # Number of float instructions (Count)
system.cpu0.commitStats0.numIntInsts          1155950                       # Number of integer instructions (Count)
system.cpu0.commitStats0.numLoadInsts          241440                       # Number of load instructions (Count)
system.cpu0.commitStats0.numStoreInsts         166770                       # Number of store instructions (Count)
system.cpu0.commitStats0.numVecInsts                0                       # Number of vector instructions (Count)
system.cpu0.commitStats0.committedInstType::No_OpClass          262      0.02%      0.02% # Class of committed instruction. (Count)
system.cpu0.commitStats0.committedInstType::IntAlu       740278     63.50%     63.52% # Class of committed instruction. (Count)
system.cpu0.commitStats0.committedInstType::IntMult         4507      0.39%     63.91% # Class of committed instruction. (Count)
system.cpu0.commitStats0.committedInstType::IntDiv         4273      0.37%     64.27% # Class of committed instruction. (Count)
system.cpu0.commitStats0.committedInstType::FloatAdd         4099      0.35%     64.62% # Class of committed instruction. (Count)
system.cpu0.commitStats0.committedInstType::FloatCmp           27      0.00%     64.63% # Class of committed instruction. (Count)
system.cpu0.commitStats0.committedInstType::FloatCvt         4173      0.36%     64.98% # Class of committed instruction. (Count)
system.cpu0.commitStats0.committedInstType::FloatMult            0      0.00%     64.98% # Class of committed instruction. (Count)
system.cpu0.commitStats0.committedInstType::FloatMultAcc            0      0.00%     64.98% # Class of committed instruction. (Count)
system.cpu0.commitStats0.committedInstType::FloatDiv           10      0.00%     64.98% # Class of committed instruction. (Count)
system.cpu0.commitStats0.committedInstType::FloatMisc           18      0.00%     64.99% # Class of committed instruction. (Count)
system.cpu0.commitStats0.committedInstType::FloatSqrt            1      0.00%     64.99% # Class of committed instruction. (Count)
system.cpu0.commitStats0.committedInstType::SimdAdd            0      0.00%     64.99% # Class of committed instruction. (Count)
system.cpu0.commitStats0.committedInstType::SimdAddAcc            0      0.00%     64.99% # Class of committed instruction. (Count)
system.cpu0.commitStats0.committedInstType::SimdAlu            0      0.00%     64.99% # Class of committed instruction. (Count)
system.cpu0.commitStats0.committedInstType::SimdCmp            0      0.00%     64.99% # Class of committed instruction. (Count)
system.cpu0.commitStats0.committedInstType::SimdCvt            0      0.00%     64.99% # Class of committed instruction. (Count)
system.cpu0.commitStats0.committedInstType::SimdMisc            0      0.00%     64.99% # Class of committed instruction. (Count)
system.cpu0.commitStats0.committedInstType::SimdMult            0      0.00%     64.99% # Class of committed instruction. (Count)
system.cpu0.commitStats0.committedInstType::SimdMultAcc            0      0.00%     64.99% # Class of committed instruction. (Count)
system.cpu0.commitStats0.committedInstType::SimdMatMultAcc            0      0.00%     64.99% # Class of committed instruction. (Count)
system.cpu0.commitStats0.committedInstType::SimdShift            0      0.00%     64.99% # Class of committed instruction. (Count)
system.cpu0.commitStats0.committedInstType::SimdShiftAcc            0      0.00%     64.99% # Class of committed instruction. (Count)
system.cpu0.commitStats0.committedInstType::SimdDiv            0      0.00%     64.99% # Class of committed instruction. (Count)
system.cpu0.commitStats0.committedInstType::SimdSqrt            0      0.00%     64.99% # Class of committed instruction. (Count)
system.cpu0.commitStats0.committedInstType::SimdFloatAdd            0      0.00%     64.99% # Class of committed instruction. (Count)
system.cpu0.commitStats0.committedInstType::SimdFloatAlu            0      0.00%     64.99% # Class of committed instruction. (Count)
system.cpu0.commitStats0.committedInstType::SimdFloatCmp            0      0.00%     64.99% # Class of committed instruction. (Count)
system.cpu0.commitStats0.committedInstType::SimdFloatCvt            0      0.00%     64.99% # Class of committed instruction. (Count)
system.cpu0.commitStats0.committedInstType::SimdFloatDiv            0      0.00%     64.99% # Class of committed instruction. (Count)
system.cpu0.commitStats0.committedInstType::SimdFloatMisc            0      0.00%     64.99% # Class of committed instruction. (Count)
system.cpu0.commitStats0.committedInstType::SimdFloatMult            0      0.00%     64.99% # Class of committed instruction. (Count)
system.cpu0.commitStats0.committedInstType::SimdFloatMultAcc            0      0.00%     64.99% # Class of committed instruction. (Count)
system.cpu0.commitStats0.committedInstType::SimdFloatMatMultAcc            0      0.00%     64.99% # Class of committed instruction. (Count)
system.cpu0.commitStats0.committedInstType::SimdFloatSqrt            0      0.00%     64.99% # Class of committed instruction. (Count)
system.cpu0.commitStats0.committedInstType::SimdReduceAdd            0      0.00%     64.99% # Class of committed instruction. (Count)
system.cpu0.commitStats0.committedInstType::SimdReduceAlu            0      0.00%     64.99% # Class of committed instruction. (Count)
system.cpu0.commitStats0.committedInstType::SimdReduceCmp            0      0.00%     64.99% # Class of committed instruction. (Count)
system.cpu0.commitStats0.committedInstType::SimdFloatReduceAdd            0      0.00%     64.99% # Class of committed instruction. (Count)
system.cpu0.commitStats0.committedInstType::SimdFloatReduceCmp            0      0.00%     64.99% # Class of committed instruction. (Count)
system.cpu0.commitStats0.committedInstType::SimdAes            0      0.00%     64.99% # Class of committed instruction. (Count)
system.cpu0.commitStats0.committedInstType::SimdAesMix            0      0.00%     64.99% # Class of committed instruction. (Count)
system.cpu0.commitStats0.committedInstType::SimdSha1Hash            0      0.00%     64.99% # Class of committed instruction. (Count)
system.cpu0.commitStats0.committedInstType::SimdSha1Hash2            0      0.00%     64.99% # Class of committed instruction. (Count)
system.cpu0.commitStats0.committedInstType::SimdSha256Hash            0      0.00%     64.99% # Class of committed instruction. (Count)
system.cpu0.commitStats0.committedInstType::SimdSha256Hash2            0      0.00%     64.99% # Class of committed instruction. (Count)
system.cpu0.commitStats0.committedInstType::SimdShaSigma2            0      0.00%     64.99% # Class of committed instruction. (Count)
system.cpu0.commitStats0.committedInstType::SimdShaSigma3            0      0.00%     64.99% # Class of committed instruction. (Count)
system.cpu0.commitStats0.committedInstType::SimdPredAlu            0      0.00%     64.99% # Class of committed instruction. (Count)
system.cpu0.commitStats0.committedInstType::Matrix            0      0.00%     64.99% # Class of committed instruction. (Count)
system.cpu0.commitStats0.committedInstType::MatrixMov            0      0.00%     64.99% # Class of committed instruction. (Count)
system.cpu0.commitStats0.committedInstType::MatrixOP            0      0.00%     64.99% # Class of committed instruction. (Count)
system.cpu0.commitStats0.committedInstType::MemRead       233267     20.01%     84.99% # Class of committed instruction. (Count)
system.cpu0.commitStats0.committedInstType::MemWrite       154382     13.24%     98.24% # Class of committed instruction. (Count)
system.cpu0.commitStats0.committedInstType::FloatMemRead         8230      0.71%     98.94% # Class of committed instruction. (Count)
system.cpu0.commitStats0.committedInstType::FloatMemWrite        12331      1.06%    100.00% # Class of committed instruction. (Count)
system.cpu0.commitStats0.committedInstType::IprAccess            0      0.00%    100.00% # Class of committed instruction. (Count)
system.cpu0.commitStats0.committedInstType::InstPrefetch            0      0.00%    100.00% # Class of committed instruction. (Count)
system.cpu0.commitStats0.committedInstType::VectorUnitStrideLoad            0      0.00%    100.00% # Class of committed instruction. (Count)
system.cpu0.commitStats0.committedInstType::VectorUnitStrideStore            0      0.00%    100.00% # Class of committed instruction. (Count)
system.cpu0.commitStats0.committedInstType::VectorUnitStrideMaskLoad            0      0.00%    100.00% # Class of committed instruction. (Count)
system.cpu0.commitStats0.committedInstType::VectorUnitStrideMaskStore            0      0.00%    100.00% # Class of committed instruction. (Count)
system.cpu0.commitStats0.committedInstType::VectorStridedLoad            0      0.00%    100.00% # Class of committed instruction. (Count)
system.cpu0.commitStats0.committedInstType::VectorStridedStore            0      0.00%    100.00% # Class of committed instruction. (Count)
system.cpu0.commitStats0.committedInstType::VectorIndexedLoad            0      0.00%    100.00% # Class of committed instruction. (Count)
system.cpu0.commitStats0.committedInstType::VectorIndexedStore            0      0.00%    100.00% # Class of committed instruction. (Count)
system.cpu0.commitStats0.committedInstType::VectorUnitStrideFaultOnlyFirstLoad            0      0.00%    100.00% # Class of committed instruction. (Count)
system.cpu0.commitStats0.committedInstType::VectorWholeRegisterLoad            0      0.00%    100.00% # Class of committed instruction. (Count)
system.cpu0.commitStats0.committedInstType::VectorWholeRegisterStore            0      0.00%    100.00% # Class of committed instruction. (Count)
system.cpu0.commitStats0.committedInstType::VectorIntegerArith            0      0.00%    100.00% # Class of committed instruction. (Count)
system.cpu0.commitStats0.committedInstType::VectorFloatArith            0      0.00%    100.00% # Class of committed instruction. (Count)
system.cpu0.commitStats0.committedInstType::VectorFloatConvert            0      0.00%    100.00% # Class of committed instruction. (Count)
system.cpu0.commitStats0.committedInstType::VectorIntegerReduce            0      0.00%    100.00% # Class of committed instruction. (Count)
system.cpu0.commitStats0.committedInstType::VectorFloatReduce            0      0.00%    100.00% # Class of committed instruction. (Count)
system.cpu0.commitStats0.committedInstType::VectorMisc            0      0.00%    100.00% # Class of committed instruction. (Count)
system.cpu0.commitStats0.committedInstType::VectorIntegerExtension            0      0.00%    100.00% # Class of committed instruction. (Count)
system.cpu0.commitStats0.committedInstType::VectorConfig            0      0.00%    100.00% # Class of committed instruction. (Count)
system.cpu0.commitStats0.committedInstType::total      1165858                       # Class of committed instruction. (Count)
system.cpu0.commitStats0.committedControl::IsControl       210440                       # Class of control type instructions committed (Count)
system.cpu0.commitStats0.committedControl::IsDirectControl       171360                       # Class of control type instructions committed (Count)
system.cpu0.commitStats0.committedControl::IsIndirectControl        39080                       # Class of control type instructions committed (Count)
system.cpu0.commitStats0.committedControl::IsCondControl       127117                       # Class of control type instructions committed (Count)
system.cpu0.commitStats0.committedControl::IsUncondControl        83323                       # Class of control type instructions committed (Count)
system.cpu0.commitStats0.committedControl::IsCall        38597                       # Class of control type instructions committed (Count)
system.cpu0.commitStats0.committedControl::IsReturn        38593                       # Class of control type instructions committed (Count)
system.cpu0.exec_context.thread_0.numMatAluAccesses            0                       # Number of matrix alu accesses (Count)
system.cpu0.exec_context.thread_0.numCallsReturns        77190                       # Number of times a function call or return occured (Count)
system.cpu0.exec_context.thread_0.numMatInsts            0                       # Number of matrix instructions (Count)
system.cpu0.exec_context.thread_0.numIdleCycles 5260837833.000001                       # Number of idle cycles (Cycle)
system.cpu0.exec_context.thread_0.numBusyCycles 3836483.999999                       # Number of busy cycles (Cycle)
system.cpu0.exec_context.thread_0.notIdleFraction     0.000729                       # Percentage of non-idle cycles (Ratio)
system.cpu0.exec_context.thread_0.idleFraction     0.999271                       # Percentage of idle cycles (Ratio)
system.cpu0.executeStats0.numInsts                  0                       # Number of executed instructions (Count)
system.cpu0.executeStats0.numNop                    0                       # Number of nop insts executed (Count)
system.cpu0.executeStats0.numBranches               0                       # Number of branches executed (Count)
system.cpu0.executeStats0.numLoadInsts              0                       # Number of load instructions executed (Count)
system.cpu0.executeStats0.numStoreInsts        408210                       # Number of stores executed (Count)
system.cpu0.executeStats0.instRate                  0                       # Inst execution rate ((Count/Cycle))
system.cpu0.executeStats0.numFpAluAccesses        28889                       # Number of float alu accesses (Count)
system.cpu0.executeStats0.numFpRegReads         20662                       # Number of times the floating registers were read (Count)
system.cpu0.executeStats0.numFpRegWrites        16509                       # Number of times the floating registers were written (Count)
system.cpu0.executeStats0.numIntAluAccesses      1155950                       # Number of integer alu accesses (Count)
system.cpu0.executeStats0.numIntRegReads      1372048                       # Number of times the integer registers were read (Count)
system.cpu0.executeStats0.numIntRegWrites       810659                       # Number of times the integer registers were written (Count)
system.cpu0.executeStats0.numMemRefs           408210                       # Number of memory refs (Count)
system.cpu0.executeStats0.numMiscRegReads        45569                       # Number of times the Misc registers were read (Count)
system.cpu0.executeStats0.numMiscRegWrites        24886                       # Number of times the Misc registers were written (Count)
system.cpu0.executeStats0.numVecAluAccesses            0                       # Number of vector alu accesses (Count)
system.cpu0.executeStats0.numDiscardedOps            0                       # Number of ops (including micro ops) which were discarded before commit (Count)
system.cpu0.fetchStats0.numInsts              1165747                       # Number of instructions fetched (thread level) (Count)
system.cpu0.fetchStats0.numOps                1165858                       # Number of ops (including micro ops) fetched (thread level) (Count)
system.cpu0.fetchStats0.fetchRate            0.000221                       # Number of inst fetches per cycle ((Count/Cycle))
system.cpu0.fetchStats0.numBranches            210440                       # Number of branches fetched (Count)
system.cpu0.fetchStats0.branchRate           0.000040                       # Number of branch fetches per cycle (Ratio)
system.cpu0.fetchStats0.numFetchSuspends            0                       # Number of times Execute suspended instruction fetching (Count)
system.cpu0.mmu.dtb.readHits                        0                       # read hits (Count)
system.cpu0.mmu.dtb.readMisses                      0                       # read misses (Count)
system.cpu0.mmu.dtb.readAccesses                    0                       # read accesses (Count)
system.cpu0.mmu.dtb.writeHits                       0                       # write hits (Count)
system.cpu0.mmu.dtb.writeMisses                     0                       # write misses (Count)
system.cpu0.mmu.dtb.writeAccesses                   0                       # write accesses (Count)
system.cpu0.mmu.dtb.hits                            0                       # Total TLB (read and write) hits (Count)
system.cpu0.mmu.dtb.misses                          0                       # Total TLB (read and write) misses (Count)
system.cpu0.mmu.dtb.accesses                        0                       # Total TLB (read and write) accesses (Count)
system.cpu0.mmu.dtb.walker.power_state.pwrStateResidencyTicks::UNDEFINED 2632337158500                       # Cumulative time (in ticks) in various power states (Tick)
system.cpu0.mmu.itb.readHits                        0                       # read hits (Count)
system.cpu0.mmu.itb.readMisses                      0                       # read misses (Count)
system.cpu0.mmu.itb.readAccesses                    0                       # read accesses (Count)
system.cpu0.mmu.itb.writeHits                       0                       # write hits (Count)
system.cpu0.mmu.itb.writeMisses                     0                       # write misses (Count)
system.cpu0.mmu.itb.writeAccesses                   0                       # write accesses (Count)
system.cpu0.mmu.itb.hits                            0                       # Total TLB (read and write) hits (Count)
system.cpu0.mmu.itb.misses                          0                       # Total TLB (read and write) misses (Count)
system.cpu0.mmu.itb.accesses                        0                       # Total TLB (read and write) accesses (Count)
system.cpu0.mmu.itb.walker.power_state.pwrStateResidencyTicks::UNDEFINED 2632337158500                       # Cumulative time (in ticks) in various power states (Tick)
system.cpu0.power_state.numTransitions              2                       # Number of power state transitions (Count)
system.cpu0.power_state.ticksClkGated::samples            1                       # Distribution of time spent in the clock gated state (Tick)
system.cpu0.power_state.ticksClkGated::mean 2630418916500                       # Distribution of time spent in the clock gated state (Tick)
system.cpu0.power_state.ticksClkGated::overflows            1    100.00%    100.00% # Distribution of time spent in the clock gated state (Tick)
system.cpu0.power_state.ticksClkGated::min_value 2630418916500                       # Distribution of time spent in the clock gated state (Tick)
system.cpu0.power_state.ticksClkGated::max_value 2630418916500                       # Distribution of time spent in the clock gated state (Tick)
system.cpu0.power_state.ticksClkGated::total            1                       # Distribution of time spent in the clock gated state (Tick)
system.cpu0.power_state.pwrStateResidencyTicks::ON   1918242000                       # Cumulative time (in ticks) in various power states (Tick)
system.cpu0.power_state.pwrStateResidencyTicks::CLK_GATED 2630418916500                       # Cumulative time (in ticks) in various power states (Tick)
system.cpu0.thread_0.numInsts                       0                       # Number of Instructions committed (Count)
system.cpu0.thread_0.numOps                         0                       # Number of Ops committed (Count)
system.cpu0.thread_0.numMemRefs                     0                       # Number of Memory References (Count)
system.cpu0.workload.numSyscalls                   51                       # Number of system calls (Count)
system.cpu1.numCycles                      5264376588                       # Number of cpu cycles simulated (Cycle)
system.cpu1.cpi                              5.549669                       # CPI: cycles per instruction (core level) ((Cycle/Count))
system.cpu1.ipc                              0.180191                       # IPC: instructions per cycle (core level) ((Count/Cycle))
system.cpu1.numWorkItemsStarted                     0                       # Number of work items this cpu started (Count)
system.cpu1.numWorkItemsCompleted                   0                       # Number of work items this cpu completed (Count)
system.cpu1.commitStats0.numInsts           948592862                       # Number of instructions committed (thread level) (Count)
system.cpu1.commitStats0.numOps             948593015                       # Number of ops (including micro ops) committed (thread level) (Count)
system.cpu1.commitStats0.numInstsNotNOP             0                       # Number of instructions committed excluding NOPs or prefetches (Count)
system.cpu1.commitStats0.numOpsNotNOP               0                       # Number of Ops (including micro ops) Simulated (Count)
system.cpu1.commitStats0.cpi                 5.549669                       # CPI: cycles per instruction (thread level) ((Cycle/Count))
system.cpu1.commitStats0.ipc                 0.180191                       # IPC: instructions per cycle (thread level) ((Count/Cycle))
system.cpu1.commitStats0.numMemRefs                 0                       # Number of memory references committed (Count)
system.cpu1.commitStats0.numFpInsts         506887436                       # Number of float instructions (Count)
system.cpu1.commitStats0.numIntInsts        781630799                       # Number of integer instructions (Count)
system.cpu1.commitStats0.numLoadInsts       242221830                       # Number of load instructions (Count)
system.cpu1.commitStats0.numStoreInsts       86042380                       # Number of store instructions (Count)
system.cpu1.commitStats0.numVecInsts                0                       # Number of vector instructions (Count)
system.cpu1.commitStats0.committedInstType::No_OpClass      2853286      0.30%      0.30% # Class of committed instruction. (Count)
system.cpu1.commitStats0.committedInstType::IntAlu    429758690     45.30%     45.61% # Class of committed instruction. (Count)
system.cpu1.commitStats0.committedInstType::IntMult            9      0.00%     45.61% # Class of committed instruction. (Count)
system.cpu1.commitStats0.committedInstType::IntDiv           81      0.00%     45.61% # Class of committed instruction. (Count)
system.cpu1.commitStats0.committedInstType::FloatAdd     50730688      5.35%     50.95% # Class of committed instruction. (Count)
system.cpu1.commitStats0.committedInstType::FloatCmp      8992700      0.95%     51.90% # Class of committed instruction. (Count)
system.cpu1.commitStats0.committedInstType::FloatCvt     14106509      1.49%     53.39% # Class of committed instruction. (Count)
system.cpu1.commitStats0.committedInstType::FloatMult      7760994      0.82%     54.21% # Class of committed instruction. (Count)
system.cpu1.commitStats0.committedInstType::FloatMultAcc     84719800      8.93%     63.14% # Class of committed instruction. (Count)
system.cpu1.commitStats0.committedInstType::FloatDiv      6427104      0.68%     63.82% # Class of committed instruction. (Count)
system.cpu1.commitStats0.committedInstType::FloatMisc     13552444      1.43%     65.24% # Class of committed instruction. (Count)
system.cpu1.commitStats0.committedInstType::FloatSqrt      1426500      0.15%     65.39% # Class of committed instruction. (Count)
system.cpu1.commitStats0.committedInstType::SimdAdd            0      0.00%     65.39% # Class of committed instruction. (Count)
system.cpu1.commitStats0.committedInstType::SimdAddAcc            0      0.00%     65.39% # Class of committed instruction. (Count)
system.cpu1.commitStats0.committedInstType::SimdAlu            0      0.00%     65.39% # Class of committed instruction. (Count)
system.cpu1.commitStats0.committedInstType::SimdCmp            0      0.00%     65.39% # Class of committed instruction. (Count)
system.cpu1.commitStats0.committedInstType::SimdCvt            0      0.00%     65.39% # Class of committed instruction. (Count)
system.cpu1.commitStats0.committedInstType::SimdMisc            0      0.00%     65.39% # Class of committed instruction. (Count)
system.cpu1.commitStats0.committedInstType::SimdMult            0      0.00%     65.39% # Class of committed instruction. (Count)
system.cpu1.commitStats0.committedInstType::SimdMultAcc            0      0.00%     65.39% # Class of committed instruction. (Count)
system.cpu1.commitStats0.committedInstType::SimdMatMultAcc            0      0.00%     65.39% # Class of committed instruction. (Count)
system.cpu1.commitStats0.committedInstType::SimdShift            0      0.00%     65.39% # Class of committed instruction. (Count)
system.cpu1.commitStats0.committedInstType::SimdShiftAcc            0      0.00%     65.39% # Class of committed instruction. (Count)
system.cpu1.commitStats0.committedInstType::SimdDiv            0      0.00%     65.39% # Class of committed instruction. (Count)
system.cpu1.commitStats0.committedInstType::SimdSqrt            0      0.00%     65.39% # Class of committed instruction. (Count)
system.cpu1.commitStats0.committedInstType::SimdFloatAdd            0      0.00%     65.39% # Class of committed instruction. (Count)
system.cpu1.commitStats0.committedInstType::SimdFloatAlu            0      0.00%     65.39% # Class of committed instruction. (Count)
system.cpu1.commitStats0.committedInstType::SimdFloatCmp            0      0.00%     65.39% # Class of committed instruction. (Count)
system.cpu1.commitStats0.committedInstType::SimdFloatCvt            0      0.00%     65.39% # Class of committed instruction. (Count)
system.cpu1.commitStats0.committedInstType::SimdFloatDiv            0      0.00%     65.39% # Class of committed instruction. (Count)
system.cpu1.commitStats0.committedInstType::SimdFloatMisc            0      0.00%     65.39% # Class of committed instruction. (Count)
system.cpu1.commitStats0.committedInstType::SimdFloatMult            0      0.00%     65.39% # Class of committed instruction. (Count)
system.cpu1.commitStats0.committedInstType::SimdFloatMultAcc            0      0.00%     65.39% # Class of committed instruction. (Count)
system.cpu1.commitStats0.committedInstType::SimdFloatMatMultAcc            0      0.00%     65.39% # Class of committed instruction. (Count)
system.cpu1.commitStats0.committedInstType::SimdFloatSqrt            0      0.00%     65.39% # Class of committed instruction. (Count)
system.cpu1.commitStats0.committedInstType::SimdReduceAdd            0      0.00%     65.39% # Class of committed instruction. (Count)
system.cpu1.commitStats0.committedInstType::SimdReduceAlu            0      0.00%     65.39% # Class of committed instruction. (Count)
system.cpu1.commitStats0.committedInstType::SimdReduceCmp            0      0.00%     65.39% # Class of committed instruction. (Count)
system.cpu1.commitStats0.committedInstType::SimdFloatReduceAdd            0      0.00%     65.39% # Class of committed instruction. (Count)
system.cpu1.commitStats0.committedInstType::SimdFloatReduceCmp            0      0.00%     65.39% # Class of committed instruction. (Count)
system.cpu1.commitStats0.committedInstType::SimdAes            0      0.00%     65.39% # Class of committed instruction. (Count)
system.cpu1.commitStats0.committedInstType::SimdAesMix            0      0.00%     65.39% # Class of committed instruction. (Count)
system.cpu1.commitStats0.committedInstType::SimdSha1Hash            0      0.00%     65.39% # Class of committed instruction. (Count)
system.cpu1.commitStats0.committedInstType::SimdSha1Hash2            0      0.00%     65.39% # Class of committed instruction. (Count)
system.cpu1.commitStats0.committedInstType::SimdSha256Hash            0      0.00%     65.39% # Class of committed instruction. (Count)
system.cpu1.commitStats0.committedInstType::SimdSha256Hash2            0      0.00%     65.39% # Class of committed instruction. (Count)
system.cpu1.commitStats0.committedInstType::SimdShaSigma2            0      0.00%     65.39% # Class of committed instruction. (Count)
system.cpu1.commitStats0.committedInstType::SimdShaSigma3            0      0.00%     65.39% # Class of committed instruction. (Count)
system.cpu1.commitStats0.committedInstType::SimdPredAlu            0      0.00%     65.39% # Class of committed instruction. (Count)
system.cpu1.commitStats0.committedInstType::Matrix            0      0.00%     65.39% # Class of committed instruction. (Count)
system.cpu1.commitStats0.committedInstType::MatrixMov            0      0.00%     65.39% # Class of committed instruction. (Count)
system.cpu1.commitStats0.committedInstType::MatrixOP            0      0.00%     65.39% # Class of committed instruction. (Count)
system.cpu1.commitStats0.committedInstType::MemRead      4376922      0.46%     65.86% # Class of committed instruction. (Count)
system.cpu1.commitStats0.committedInstType::MemWrite      4716591      0.50%     66.35% # Class of committed instruction. (Count)
system.cpu1.commitStats0.committedInstType::FloatMemRead    237845066     25.07%     91.43% # Class of committed instruction. (Count)
system.cpu1.commitStats0.committedInstType::FloatMemWrite     81325631      8.57%    100.00% # Class of committed instruction. (Count)
system.cpu1.commitStats0.committedInstType::IprAccess            0      0.00%    100.00% # Class of committed instruction. (Count)
system.cpu1.commitStats0.committedInstType::InstPrefetch            0      0.00%    100.00% # Class of committed instruction. (Count)
system.cpu1.commitStats0.committedInstType::VectorUnitStrideLoad            0      0.00%    100.00% # Class of committed instruction. (Count)
system.cpu1.commitStats0.committedInstType::VectorUnitStrideStore            0      0.00%    100.00% # Class of committed instruction. (Count)
system.cpu1.commitStats0.committedInstType::VectorUnitStrideMaskLoad            0      0.00%    100.00% # Class of committed instruction. (Count)
system.cpu1.commitStats0.committedInstType::VectorUnitStrideMaskStore            0      0.00%    100.00% # Class of committed instruction. (Count)
system.cpu1.commitStats0.committedInstType::VectorStridedLoad            0      0.00%    100.00% # Class of committed instruction. (Count)
system.cpu1.commitStats0.committedInstType::VectorStridedStore            0      0.00%    100.00% # Class of committed instruction. (Count)
system.cpu1.commitStats0.committedInstType::VectorIndexedLoad            0      0.00%    100.00% # Class of committed instruction. (Count)
system.cpu1.commitStats0.committedInstType::VectorIndexedStore            0      0.00%    100.00% # Class of committed instruction. (Count)
system.cpu1.commitStats0.committedInstType::VectorUnitStrideFaultOnlyFirstLoad            0      0.00%    100.00% # Class of committed instruction. (Count)
system.cpu1.commitStats0.committedInstType::VectorWholeRegisterLoad            0      0.00%    100.00% # Class of committed instruction. (Count)
system.cpu1.commitStats0.committedInstType::VectorWholeRegisterStore            0      0.00%    100.00% # Class of committed instruction. (Count)
system.cpu1.commitStats0.committedInstType::VectorIntegerArith            0      0.00%    100.00% # Class of committed instruction. (Count)
system.cpu1.commitStats0.committedInstType::VectorFloatArith            0      0.00%    100.00% # Class of committed instruction. (Count)
system.cpu1.commitStats0.committedInstType::VectorFloatConvert            0      0.00%    100.00% # Class of committed instruction. (Count)
system.cpu1.commitStats0.committedInstType::VectorIntegerReduce            0      0.00%    100.00% # Class of committed instruction. (Count)
system.cpu1.commitStats0.committedInstType::VectorFloatReduce            0      0.00%    100.00% # Class of committed instruction. (Count)
system.cpu1.commitStats0.committedInstType::VectorMisc            0      0.00%    100.00% # Class of committed instruction. (Count)
system.cpu1.commitStats0.committedInstType::VectorIntegerExtension            0      0.00%    100.00% # Class of committed instruction. (Count)
system.cpu1.commitStats0.committedInstType::VectorConfig            0      0.00%    100.00% # Class of committed instruction. (Count)
system.cpu1.commitStats0.committedInstType::total    948593015                       # Class of committed instruction. (Count)
system.cpu1.commitStats0.committedControl::IsControl    101482193                       # Class of control type instructions committed (Count)
system.cpu1.commitStats0.committedControl::IsDirectControl    100477306                       # Class of control type instructions committed (Count)
system.cpu1.commitStats0.committedControl::IsIndirectControl      1004887                       # Class of control type instructions committed (Count)
system.cpu1.commitStats0.committedControl::IsCondControl     99127941                       # Class of control type instructions committed (Count)
system.cpu1.commitStats0.committedControl::IsUncondControl      2354252                       # Class of control type instructions committed (Count)
system.cpu1.commitStats0.committedControl::IsCall      1004863                       # Class of control type instructions committed (Count)
system.cpu1.commitStats0.committedControl::IsReturn      1004862                       # Class of control type instructions committed (Count)
system.cpu1.exec_context.thread_0.numMatAluAccesses            0                       # Number of matrix alu accesses (Count)
system.cpu1.exec_context.thread_0.numCallsReturns      2009725                       # Number of times a function call or return occured (Count)
system.cpu1.exec_context.thread_0.numMatInsts            0                       # Number of matrix instructions (Count)
system.cpu1.exec_context.thread_0.numIdleCycles 3834206.156880                       # Number of idle cycles (Cycle)
system.cpu1.exec_context.thread_0.numBusyCycles 5260542381.843120                       # Number of busy cycles (Cycle)
system.cpu1.exec_context.thread_0.notIdleFraction     0.999272                       # Percentage of non-idle cycles (Ratio)
system.cpu1.exec_context.thread_0.idleFraction     0.000728                       # Percentage of idle cycles (Ratio)
system.cpu1.executeStats0.numInsts                  0                       # Number of executed instructions (Count)
system.cpu1.executeStats0.numNop                    0                       # Number of nop insts executed (Count)
system.cpu1.executeStats0.numBranches               0                       # Number of branches executed (Count)
system.cpu1.executeStats0.numLoadInsts              0                       # Number of load instructions executed (Count)
system.cpu1.executeStats0.numStoreInsts     328264210                       # Number of stores executed (Count)
system.cpu1.executeStats0.instRate                  0                       # Inst execution rate ((Count/Cycle))
system.cpu1.executeStats0.numFpAluAccesses    506887436                       # Number of float alu accesses (Count)
system.cpu1.executeStats0.numFpRegReads     521477792                       # Number of times the floating registers were read (Count)
system.cpu1.executeStats0.numFpRegWrites    408930705                       # Number of times the floating registers were written (Count)
system.cpu1.executeStats0.numIntAluAccesses    781630799                       # Number of integer alu accesses (Count)
system.cpu1.executeStats0.numIntRegReads    935146395                       # Number of times the integer registers were read (Count)
system.cpu1.executeStats0.numIntRegWrites    351716025                       # Number of times the integer registers were written (Count)
system.cpu1.executeStats0.numMemRefs        328264210                       # Number of memory refs (Count)
system.cpu1.executeStats0.numMiscRegReads    861480315                       # Number of times the Misc registers were read (Count)
system.cpu1.executeStats0.numMiscRegWrites    613278544                       # Number of times the Misc registers were written (Count)
system.cpu1.executeStats0.numVecAluAccesses            0                       # Number of vector alu accesses (Count)
system.cpu1.executeStats0.numDiscardedOps            0                       # Number of ops (including micro ops) which were discarded before commit (Count)
system.cpu1.fetchStats0.numInsts            948592862                       # Number of instructions fetched (thread level) (Count)
system.cpu1.fetchStats0.numOps              948593015                       # Number of ops (including micro ops) fetched (thread level) (Count)
system.cpu1.fetchStats0.fetchRate            0.180191                       # Number of inst fetches per cycle ((Count/Cycle))
system.cpu1.fetchStats0.numBranches         101482193                       # Number of branches fetched (Count)
system.cpu1.fetchStats0.branchRate           0.019277                       # Number of branch fetches per cycle (Ratio)
system.cpu1.fetchStats0.numFetchSuspends            0                       # Number of times Execute suspended instruction fetching (Count)
system.cpu1.mmu.dtb.readHits                        0                       # read hits (Count)
system.cpu1.mmu.dtb.readMisses                      0                       # read misses (Count)
system.cpu1.mmu.dtb.readAccesses                    0                       # read accesses (Count)
system.cpu1.mmu.dtb.writeHits                       0                       # write hits (Count)
system.cpu1.mmu.dtb.writeMisses                     0                       # write misses (Count)
system.cpu1.mmu.dtb.writeAccesses                   0                       # write accesses (Count)
system.cpu1.mmu.dtb.hits                            0                       # Total TLB (read and write) hits (Count)
system.cpu1.mmu.dtb.misses                          0                       # Total TLB (read and write) misses (Count)
system.cpu1.mmu.dtb.accesses                        0                       # Total TLB (read and write) accesses (Count)
system.cpu1.mmu.dtb.walker.power_state.pwrStateResidencyTicks::UNDEFINED 2632337158500                       # Cumulative time (in ticks) in various power states (Tick)
system.cpu1.mmu.itb.readHits                        0                       # read hits (Count)
system.cpu1.mmu.itb.readMisses                      0                       # read misses (Count)
system.cpu1.mmu.itb.readAccesses                    0                       # read accesses (Count)
system.cpu1.mmu.itb.writeHits                       0                       # write hits (Count)
system.cpu1.mmu.itb.writeMisses                     0                       # write misses (Count)
system.cpu1.mmu.itb.writeAccesses                   0                       # write accesses (Count)
system.cpu1.mmu.itb.hits                            0                       # Total TLB (read and write) hits (Count)
system.cpu1.mmu.itb.misses                          0                       # Total TLB (read and write) misses (Count)
system.cpu1.mmu.itb.accesses                        0                       # Total TLB (read and write) accesses (Count)
system.cpu1.mmu.itb.walker.power_state.pwrStateResidencyTicks::UNDEFINED 2632337158500                       # Cumulative time (in ticks) in various power states (Tick)
system.cpu1.power_state.pwrStateResidencyTicks::ON 2632337158500                       # Cumulative time (in ticks) in various power states (Tick)
system.cpu1.thread_0.numInsts                       0                       # Number of Instructions committed (Count)
system.cpu1.thread_0.numOps                         0                       # Number of Ops committed (Count)
system.cpu1.thread_0.numMemRefs                     0                       # Number of Memory References (Count)
system.cpu10.numCycles                              0                       # Number of cpu cycles simulated (Cycle)
system.cpu10.cpi                                  nan                       # CPI: cycles per instruction (core level) ((Cycle/Count))
system.cpu10.ipc                                  nan                       # IPC: instructions per cycle (core level) ((Count/Cycle))
system.cpu10.numWorkItemsStarted                    0                       # Number of work items this cpu started (Count)
system.cpu10.numWorkItemsCompleted                  0                       # Number of work items this cpu completed (Count)
system.cpu10.commitStats0.numOps                    0                       # Number of ops (including micro ops) committed (thread level) (Count)
system.cpu10.commitStats0.numInstsNotNOP            0                       # Number of instructions committed excluding NOPs or prefetches (Count)
system.cpu10.commitStats0.numOpsNotNOP              0                       # Number of Ops (including micro ops) Simulated (Count)
system.cpu10.commitStats0.cpi                     nan                       # CPI: cycles per instruction (thread level) ((Cycle/Count))
system.cpu10.commitStats0.ipc                     nan                       # IPC: instructions per cycle (thread level) ((Count/Cycle))
system.cpu10.commitStats0.numMemRefs                0                       # Number of memory references committed (Count)
system.cpu10.commitStats0.numFpInsts                0                       # Number of float instructions (Count)
system.cpu10.commitStats0.numIntInsts               0                       # Number of integer instructions (Count)
system.cpu10.commitStats0.numLoadInsts              0                       # Number of load instructions (Count)
system.cpu10.commitStats0.numStoreInsts             0                       # Number of store instructions (Count)
system.cpu10.commitStats0.numVecInsts               0                       # Number of vector instructions (Count)
system.cpu10.commitStats0.committedInstType::No_OpClass            0                       # Class of committed instruction. (Count)
system.cpu10.commitStats0.committedInstType::IntAlu            0                       # Class of committed instruction. (Count)
system.cpu10.commitStats0.committedInstType::IntMult            0                       # Class of committed instruction. (Count)
system.cpu10.commitStats0.committedInstType::IntDiv            0                       # Class of committed instruction. (Count)
system.cpu10.commitStats0.committedInstType::FloatAdd            0                       # Class of committed instruction. (Count)
system.cpu10.commitStats0.committedInstType::FloatCmp            0                       # Class of committed instruction. (Count)
system.cpu10.commitStats0.committedInstType::FloatCvt            0                       # Class of committed instruction. (Count)
system.cpu10.commitStats0.committedInstType::FloatMult            0                       # Class of committed instruction. (Count)
system.cpu10.commitStats0.committedInstType::FloatMultAcc            0                       # Class of committed instruction. (Count)
system.cpu10.commitStats0.committedInstType::FloatDiv            0                       # Class of committed instruction. (Count)
system.cpu10.commitStats0.committedInstType::FloatMisc            0                       # Class of committed instruction. (Count)
system.cpu10.commitStats0.committedInstType::FloatSqrt            0                       # Class of committed instruction. (Count)
system.cpu10.commitStats0.committedInstType::SimdAdd            0                       # Class of committed instruction. (Count)
system.cpu10.commitStats0.committedInstType::SimdAddAcc            0                       # Class of committed instruction. (Count)
system.cpu10.commitStats0.committedInstType::SimdAlu            0                       # Class of committed instruction. (Count)
system.cpu10.commitStats0.committedInstType::SimdCmp            0                       # Class of committed instruction. (Count)
system.cpu10.commitStats0.committedInstType::SimdCvt            0                       # Class of committed instruction. (Count)
system.cpu10.commitStats0.committedInstType::SimdMisc            0                       # Class of committed instruction. (Count)
system.cpu10.commitStats0.committedInstType::SimdMult            0                       # Class of committed instruction. (Count)
system.cpu10.commitStats0.committedInstType::SimdMultAcc            0                       # Class of committed instruction. (Count)
system.cpu10.commitStats0.committedInstType::SimdMatMultAcc            0                       # Class of committed instruction. (Count)
system.cpu10.commitStats0.committedInstType::SimdShift            0                       # Class of committed instruction. (Count)
system.cpu10.commitStats0.committedInstType::SimdShiftAcc            0                       # Class of committed instruction. (Count)
system.cpu10.commitStats0.committedInstType::SimdDiv            0                       # Class of committed instruction. (Count)
system.cpu10.commitStats0.committedInstType::SimdSqrt            0                       # Class of committed instruction. (Count)
system.cpu10.commitStats0.committedInstType::SimdFloatAdd            0                       # Class of committed instruction. (Count)
system.cpu10.commitStats0.committedInstType::SimdFloatAlu            0                       # Class of committed instruction. (Count)
system.cpu10.commitStats0.committedInstType::SimdFloatCmp            0                       # Class of committed instruction. (Count)
system.cpu10.commitStats0.committedInstType::SimdFloatCvt            0                       # Class of committed instruction. (Count)
system.cpu10.commitStats0.committedInstType::SimdFloatDiv            0                       # Class of committed instruction. (Count)
system.cpu10.commitStats0.committedInstType::SimdFloatMisc            0                       # Class of committed instruction. (Count)
system.cpu10.commitStats0.committedInstType::SimdFloatMult            0                       # Class of committed instruction. (Count)
system.cpu10.commitStats0.committedInstType::SimdFloatMultAcc            0                       # Class of committed instruction. (Count)
system.cpu10.commitStats0.committedInstType::SimdFloatMatMultAcc            0                       # Class of committed instruction. (Count)
system.cpu10.commitStats0.committedInstType::SimdFloatSqrt            0                       # Class of committed instruction. (Count)
system.cpu10.commitStats0.committedInstType::SimdReduceAdd            0                       # Class of committed instruction. (Count)
system.cpu10.commitStats0.committedInstType::SimdReduceAlu            0                       # Class of committed instruction. (Count)
system.cpu10.commitStats0.committedInstType::SimdReduceCmp            0                       # Class of committed instruction. (Count)
system.cpu10.commitStats0.committedInstType::SimdFloatReduceAdd            0                       # Class of committed instruction. (Count)
system.cpu10.commitStats0.committedInstType::SimdFloatReduceCmp            0                       # Class of committed instruction. (Count)
system.cpu10.commitStats0.committedInstType::SimdAes            0                       # Class of committed instruction. (Count)
system.cpu10.commitStats0.committedInstType::SimdAesMix            0                       # Class of committed instruction. (Count)
system.cpu10.commitStats0.committedInstType::SimdSha1Hash            0                       # Class of committed instruction. (Count)
system.cpu10.commitStats0.committedInstType::SimdSha1Hash2            0                       # Class of committed instruction. (Count)
system.cpu10.commitStats0.committedInstType::SimdSha256Hash            0                       # Class of committed instruction. (Count)
system.cpu10.commitStats0.committedInstType::SimdSha256Hash2            0                       # Class of committed instruction. (Count)
system.cpu10.commitStats0.committedInstType::SimdShaSigma2            0                       # Class of committed instruction. (Count)
system.cpu10.commitStats0.committedInstType::SimdShaSigma3            0                       # Class of committed instruction. (Count)
system.cpu10.commitStats0.committedInstType::SimdPredAlu            0                       # Class of committed instruction. (Count)
system.cpu10.commitStats0.committedInstType::Matrix            0                       # Class of committed instruction. (Count)
system.cpu10.commitStats0.committedInstType::MatrixMov            0                       # Class of committed instruction. (Count)
system.cpu10.commitStats0.committedInstType::MatrixOP            0                       # Class of committed instruction. (Count)
system.cpu10.commitStats0.committedInstType::MemRead            0                       # Class of committed instruction. (Count)
system.cpu10.commitStats0.committedInstType::MemWrite            0                       # Class of committed instruction. (Count)
system.cpu10.commitStats0.committedInstType::FloatMemRead            0                       # Class of committed instruction. (Count)
system.cpu10.commitStats0.committedInstType::FloatMemWrite            0                       # Class of committed instruction. (Count)
system.cpu10.commitStats0.committedInstType::IprAccess            0                       # Class of committed instruction. (Count)
system.cpu10.commitStats0.committedInstType::InstPrefetch            0                       # Class of committed instruction. (Count)
system.cpu10.commitStats0.committedInstType::VectorUnitStrideLoad            0                       # Class of committed instruction. (Count)
system.cpu10.commitStats0.committedInstType::VectorUnitStrideStore            0                       # Class of committed instruction. (Count)
system.cpu10.commitStats0.committedInstType::VectorUnitStrideMaskLoad            0                       # Class of committed instruction. (Count)
system.cpu10.commitStats0.committedInstType::VectorUnitStrideMaskStore            0                       # Class of committed instruction. (Count)
system.cpu10.commitStats0.committedInstType::VectorStridedLoad            0                       # Class of committed instruction. (Count)
system.cpu10.commitStats0.committedInstType::VectorStridedStore            0                       # Class of committed instruction. (Count)
system.cpu10.commitStats0.committedInstType::VectorIndexedLoad            0                       # Class of committed instruction. (Count)
system.cpu10.commitStats0.committedInstType::VectorIndexedStore            0                       # Class of committed instruction. (Count)
system.cpu10.commitStats0.committedInstType::VectorUnitStrideFaultOnlyFirstLoad            0                       # Class of committed instruction. (Count)
system.cpu10.commitStats0.committedInstType::VectorWholeRegisterLoad            0                       # Class of committed instruction. (Count)
system.cpu10.commitStats0.committedInstType::VectorWholeRegisterStore            0                       # Class of committed instruction. (Count)
system.cpu10.commitStats0.committedInstType::VectorIntegerArith            0                       # Class of committed instruction. (Count)
system.cpu10.commitStats0.committedInstType::VectorFloatArith            0                       # Class of committed instruction. (Count)
system.cpu10.commitStats0.committedInstType::VectorFloatConvert            0                       # Class of committed instruction. (Count)
system.cpu10.commitStats0.committedInstType::VectorIntegerReduce            0                       # Class of committed instruction. (Count)
system.cpu10.commitStats0.committedInstType::VectorFloatReduce            0                       # Class of committed instruction. (Count)
system.cpu10.commitStats0.committedInstType::VectorMisc            0                       # Class of committed instruction. (Count)
system.cpu10.commitStats0.committedInstType::VectorIntegerExtension            0                       # Class of committed instruction. (Count)
system.cpu10.commitStats0.committedInstType::VectorConfig            0                       # Class of committed instruction. (Count)
system.cpu10.commitStats0.committedInstType::total            0                       # Class of committed instruction. (Count)
system.cpu10.exec_context.thread_0.numMatAluAccesses            0                       # Number of matrix alu accesses (Count)
system.cpu10.exec_context.thread_0.numCallsReturns            0                       # Number of times a function call or return occured (Count)
system.cpu10.exec_context.thread_0.numMatInsts            0                       # Number of matrix instructions (Count)
system.cpu10.exec_context.thread_0.numIdleCycles            0                       # Number of idle cycles (Cycle)
system.cpu10.exec_context.thread_0.numBusyCycles            0                       # Number of busy cycles (Cycle)
system.cpu10.exec_context.thread_0.notIdleFraction            0                       # Percentage of non-idle cycles (Ratio)
system.cpu10.exec_context.thread_0.idleFraction            1                       # Percentage of idle cycles (Ratio)
system.cpu10.executeStats0.numInsts                 0                       # Number of executed instructions (Count)
system.cpu10.executeStats0.numNop                   0                       # Number of nop insts executed (Count)
system.cpu10.executeStats0.numBranches              0                       # Number of branches executed (Count)
system.cpu10.executeStats0.numLoadInsts             0                       # Number of load instructions executed (Count)
system.cpu10.executeStats0.numStoreInsts            0                       # Number of stores executed (Count)
system.cpu10.executeStats0.instRate               nan                       # Inst execution rate ((Count/Cycle))
system.cpu10.executeStats0.numFpRegWrites            0                       # Number of times the floating registers were written (Count)
system.cpu10.executeStats0.numMemRefs               0                       # Number of memory refs (Count)
system.cpu10.executeStats0.numVecAluAccesses            0                       # Number of vector alu accesses (Count)
system.cpu10.executeStats0.numDiscardedOps            0                       # Number of ops (including micro ops) which were discarded before commit (Count)
system.cpu10.fetchStats0.numInsts                   0                       # Number of instructions fetched (thread level) (Count)
system.cpu10.fetchStats0.numOps                     0                       # Number of ops (including micro ops) fetched (thread level) (Count)
system.cpu10.fetchStats0.fetchRate                nan                       # Number of inst fetches per cycle ((Count/Cycle))
system.cpu10.fetchStats0.branchRate               nan                       # Number of branch fetches per cycle (Ratio)
system.cpu10.fetchStats0.numFetchSuspends            0                       # Number of times Execute suspended instruction fetching (Count)
system.cpu10.mmu.dtb.readHits                       0                       # read hits (Count)
system.cpu10.mmu.dtb.readMisses                     0                       # read misses (Count)
system.cpu10.mmu.dtb.readAccesses                   0                       # read accesses (Count)
system.cpu10.mmu.dtb.writeHits                      0                       # write hits (Count)
system.cpu10.mmu.dtb.writeMisses                    0                       # write misses (Count)
system.cpu10.mmu.dtb.writeAccesses                  0                       # write accesses (Count)
system.cpu10.mmu.dtb.hits                           0                       # Total TLB (read and write) hits (Count)
system.cpu10.mmu.dtb.misses                         0                       # Total TLB (read and write) misses (Count)
system.cpu10.mmu.dtb.accesses                       0                       # Total TLB (read and write) accesses (Count)
system.cpu10.mmu.dtb.walker.power_state.pwrStateResidencyTicks::UNDEFINED 2632337158500                       # Cumulative time (in ticks) in various power states (Tick)
system.cpu10.mmu.itb.readHits                       0                       # read hits (Count)
system.cpu10.mmu.itb.readMisses                     0                       # read misses (Count)
system.cpu10.mmu.itb.readAccesses                   0                       # read accesses (Count)
system.cpu10.mmu.itb.writeHits                      0                       # write hits (Count)
system.cpu10.mmu.itb.writeMisses                    0                       # write misses (Count)
system.cpu10.mmu.itb.writeAccesses                  0                       # write accesses (Count)
system.cpu10.mmu.itb.hits                           0                       # Total TLB (read and write) hits (Count)
system.cpu10.mmu.itb.misses                         0                       # Total TLB (read and write) misses (Count)
system.cpu10.mmu.itb.accesses                       0                       # Total TLB (read and write) accesses (Count)
system.cpu10.mmu.itb.walker.power_state.pwrStateResidencyTicks::UNDEFINED 2632337158500                       # Cumulative time (in ticks) in various power states (Tick)
system.cpu10.power_state.pwrStateResidencyTicks::ON 2632337158500                       # Cumulative time (in ticks) in various power states (Tick)
system.cpu10.thread_0.numInsts                      0                       # Number of Instructions committed (Count)
system.cpu10.thread_0.numOps                        0                       # Number of Ops committed (Count)
system.cpu10.thread_0.numMemRefs                    0                       # Number of Memory References (Count)
system.cpu11.numCycles                              0                       # Number of cpu cycles simulated (Cycle)
system.cpu11.cpi                                  nan                       # CPI: cycles per instruction (core level) ((Cycle/Count))
system.cpu11.ipc                                  nan                       # IPC: instructions per cycle (core level) ((Count/Cycle))
system.cpu11.numWorkItemsStarted                    0                       # Number of work items this cpu started (Count)
system.cpu11.numWorkItemsCompleted                  0                       # Number of work items this cpu completed (Count)
system.cpu11.commitStats0.numOps                    0                       # Number of ops (including micro ops) committed (thread level) (Count)
system.cpu11.commitStats0.numInstsNotNOP            0                       # Number of instructions committed excluding NOPs or prefetches (Count)
system.cpu11.commitStats0.numOpsNotNOP              0                       # Number of Ops (including micro ops) Simulated (Count)
system.cpu11.commitStats0.cpi                     nan                       # CPI: cycles per instruction (thread level) ((Cycle/Count))
system.cpu11.commitStats0.ipc                     nan                       # IPC: instructions per cycle (thread level) ((Count/Cycle))
system.cpu11.commitStats0.numMemRefs                0                       # Number of memory references committed (Count)
system.cpu11.commitStats0.numFpInsts                0                       # Number of float instructions (Count)
system.cpu11.commitStats0.numIntInsts               0                       # Number of integer instructions (Count)
system.cpu11.commitStats0.numLoadInsts              0                       # Number of load instructions (Count)
system.cpu11.commitStats0.numStoreInsts             0                       # Number of store instructions (Count)
system.cpu11.commitStats0.numVecInsts               0                       # Number of vector instructions (Count)
system.cpu11.commitStats0.committedInstType::No_OpClass            0                       # Class of committed instruction. (Count)
system.cpu11.commitStats0.committedInstType::IntAlu            0                       # Class of committed instruction. (Count)
system.cpu11.commitStats0.committedInstType::IntMult            0                       # Class of committed instruction. (Count)
system.cpu11.commitStats0.committedInstType::IntDiv            0                       # Class of committed instruction. (Count)
system.cpu11.commitStats0.committedInstType::FloatAdd            0                       # Class of committed instruction. (Count)
system.cpu11.commitStats0.committedInstType::FloatCmp            0                       # Class of committed instruction. (Count)
system.cpu11.commitStats0.committedInstType::FloatCvt            0                       # Class of committed instruction. (Count)
system.cpu11.commitStats0.committedInstType::FloatMult            0                       # Class of committed instruction. (Count)
system.cpu11.commitStats0.committedInstType::FloatMultAcc            0                       # Class of committed instruction. (Count)
system.cpu11.commitStats0.committedInstType::FloatDiv            0                       # Class of committed instruction. (Count)
system.cpu11.commitStats0.committedInstType::FloatMisc            0                       # Class of committed instruction. (Count)
system.cpu11.commitStats0.committedInstType::FloatSqrt            0                       # Class of committed instruction. (Count)
system.cpu11.commitStats0.committedInstType::SimdAdd            0                       # Class of committed instruction. (Count)
system.cpu11.commitStats0.committedInstType::SimdAddAcc            0                       # Class of committed instruction. (Count)
system.cpu11.commitStats0.committedInstType::SimdAlu            0                       # Class of committed instruction. (Count)
system.cpu11.commitStats0.committedInstType::SimdCmp            0                       # Class of committed instruction. (Count)
system.cpu11.commitStats0.committedInstType::SimdCvt            0                       # Class of committed instruction. (Count)
system.cpu11.commitStats0.committedInstType::SimdMisc            0                       # Class of committed instruction. (Count)
system.cpu11.commitStats0.committedInstType::SimdMult            0                       # Class of committed instruction. (Count)
system.cpu11.commitStats0.committedInstType::SimdMultAcc            0                       # Class of committed instruction. (Count)
system.cpu11.commitStats0.committedInstType::SimdMatMultAcc            0                       # Class of committed instruction. (Count)
system.cpu11.commitStats0.committedInstType::SimdShift            0                       # Class of committed instruction. (Count)
system.cpu11.commitStats0.committedInstType::SimdShiftAcc            0                       # Class of committed instruction. (Count)
system.cpu11.commitStats0.committedInstType::SimdDiv            0                       # Class of committed instruction. (Count)
system.cpu11.commitStats0.committedInstType::SimdSqrt            0                       # Class of committed instruction. (Count)
system.cpu11.commitStats0.committedInstType::SimdFloatAdd            0                       # Class of committed instruction. (Count)
system.cpu11.commitStats0.committedInstType::SimdFloatAlu            0                       # Class of committed instruction. (Count)
system.cpu11.commitStats0.committedInstType::SimdFloatCmp            0                       # Class of committed instruction. (Count)
system.cpu11.commitStats0.committedInstType::SimdFloatCvt            0                       # Class of committed instruction. (Count)
system.cpu11.commitStats0.committedInstType::SimdFloatDiv            0                       # Class of committed instruction. (Count)
system.cpu11.commitStats0.committedInstType::SimdFloatMisc            0                       # Class of committed instruction. (Count)
system.cpu11.commitStats0.committedInstType::SimdFloatMult            0                       # Class of committed instruction. (Count)
system.cpu11.commitStats0.committedInstType::SimdFloatMultAcc            0                       # Class of committed instruction. (Count)
system.cpu11.commitStats0.committedInstType::SimdFloatMatMultAcc            0                       # Class of committed instruction. (Count)
system.cpu11.commitStats0.committedInstType::SimdFloatSqrt            0                       # Class of committed instruction. (Count)
system.cpu11.commitStats0.committedInstType::SimdReduceAdd            0                       # Class of committed instruction. (Count)
system.cpu11.commitStats0.committedInstType::SimdReduceAlu            0                       # Class of committed instruction. (Count)
system.cpu11.commitStats0.committedInstType::SimdReduceCmp            0                       # Class of committed instruction. (Count)
system.cpu11.commitStats0.committedInstType::SimdFloatReduceAdd            0                       # Class of committed instruction. (Count)
system.cpu11.commitStats0.committedInstType::SimdFloatReduceCmp            0                       # Class of committed instruction. (Count)
system.cpu11.commitStats0.committedInstType::SimdAes            0                       # Class of committed instruction. (Count)
system.cpu11.commitStats0.committedInstType::SimdAesMix            0                       # Class of committed instruction. (Count)
system.cpu11.commitStats0.committedInstType::SimdSha1Hash            0                       # Class of committed instruction. (Count)
system.cpu11.commitStats0.committedInstType::SimdSha1Hash2            0                       # Class of committed instruction. (Count)
system.cpu11.commitStats0.committedInstType::SimdSha256Hash            0                       # Class of committed instruction. (Count)
system.cpu11.commitStats0.committedInstType::SimdSha256Hash2            0                       # Class of committed instruction. (Count)
system.cpu11.commitStats0.committedInstType::SimdShaSigma2            0                       # Class of committed instruction. (Count)
system.cpu11.commitStats0.committedInstType::SimdShaSigma3            0                       # Class of committed instruction. (Count)
system.cpu11.commitStats0.committedInstType::SimdPredAlu            0                       # Class of committed instruction. (Count)
system.cpu11.commitStats0.committedInstType::Matrix            0                       # Class of committed instruction. (Count)
system.cpu11.commitStats0.committedInstType::MatrixMov            0                       # Class of committed instruction. (Count)
system.cpu11.commitStats0.committedInstType::MatrixOP            0                       # Class of committed instruction. (Count)
system.cpu11.commitStats0.committedInstType::MemRead            0                       # Class of committed instruction. (Count)
system.cpu11.commitStats0.committedInstType::MemWrite            0                       # Class of committed instruction. (Count)
system.cpu11.commitStats0.committedInstType::FloatMemRead            0                       # Class of committed instruction. (Count)
system.cpu11.commitStats0.committedInstType::FloatMemWrite            0                       # Class of committed instruction. (Count)
system.cpu11.commitStats0.committedInstType::IprAccess            0                       # Class of committed instruction. (Count)
system.cpu11.commitStats0.committedInstType::InstPrefetch            0                       # Class of committed instruction. (Count)
system.cpu11.commitStats0.committedInstType::VectorUnitStrideLoad            0                       # Class of committed instruction. (Count)
system.cpu11.commitStats0.committedInstType::VectorUnitStrideStore            0                       # Class of committed instruction. (Count)
system.cpu11.commitStats0.committedInstType::VectorUnitStrideMaskLoad            0                       # Class of committed instruction. (Count)
system.cpu11.commitStats0.committedInstType::VectorUnitStrideMaskStore            0                       # Class of committed instruction. (Count)
system.cpu11.commitStats0.committedInstType::VectorStridedLoad            0                       # Class of committed instruction. (Count)
system.cpu11.commitStats0.committedInstType::VectorStridedStore            0                       # Class of committed instruction. (Count)
system.cpu11.commitStats0.committedInstType::VectorIndexedLoad            0                       # Class of committed instruction. (Count)
system.cpu11.commitStats0.committedInstType::VectorIndexedStore            0                       # Class of committed instruction. (Count)
system.cpu11.commitStats0.committedInstType::VectorUnitStrideFaultOnlyFirstLoad            0                       # Class of committed instruction. (Count)
system.cpu11.commitStats0.committedInstType::VectorWholeRegisterLoad            0                       # Class of committed instruction. (Count)
system.cpu11.commitStats0.committedInstType::VectorWholeRegisterStore            0                       # Class of committed instruction. (Count)
system.cpu11.commitStats0.committedInstType::VectorIntegerArith            0                       # Class of committed instruction. (Count)
system.cpu11.commitStats0.committedInstType::VectorFloatArith            0                       # Class of committed instruction. (Count)
system.cpu11.commitStats0.committedInstType::VectorFloatConvert            0                       # Class of committed instruction. (Count)
system.cpu11.commitStats0.committedInstType::VectorIntegerReduce            0                       # Class of committed instruction. (Count)
system.cpu11.commitStats0.committedInstType::VectorFloatReduce            0                       # Class of committed instruction. (Count)
system.cpu11.commitStats0.committedInstType::VectorMisc            0                       # Class of committed instruction. (Count)
system.cpu11.commitStats0.committedInstType::VectorIntegerExtension            0                       # Class of committed instruction. (Count)
system.cpu11.commitStats0.committedInstType::VectorConfig            0                       # Class of committed instruction. (Count)
system.cpu11.commitStats0.committedInstType::total            0                       # Class of committed instruction. (Count)
system.cpu11.exec_context.thread_0.numMatAluAccesses            0                       # Number of matrix alu accesses (Count)
system.cpu11.exec_context.thread_0.numCallsReturns            0                       # Number of times a function call or return occured (Count)
system.cpu11.exec_context.thread_0.numMatInsts            0                       # Number of matrix instructions (Count)
system.cpu11.exec_context.thread_0.numIdleCycles            0                       # Number of idle cycles (Cycle)
system.cpu11.exec_context.thread_0.numBusyCycles            0                       # Number of busy cycles (Cycle)
system.cpu11.exec_context.thread_0.notIdleFraction            0                       # Percentage of non-idle cycles (Ratio)
system.cpu11.exec_context.thread_0.idleFraction            1                       # Percentage of idle cycles (Ratio)
system.cpu11.executeStats0.numInsts                 0                       # Number of executed instructions (Count)
system.cpu11.executeStats0.numNop                   0                       # Number of nop insts executed (Count)
system.cpu11.executeStats0.numBranches              0                       # Number of branches executed (Count)
system.cpu11.executeStats0.numLoadInsts             0                       # Number of load instructions executed (Count)
system.cpu11.executeStats0.numStoreInsts            0                       # Number of stores executed (Count)
system.cpu11.executeStats0.instRate               nan                       # Inst execution rate ((Count/Cycle))
system.cpu11.executeStats0.numFpRegWrites            0                       # Number of times the floating registers were written (Count)
system.cpu11.executeStats0.numMemRefs               0                       # Number of memory refs (Count)
system.cpu11.executeStats0.numVecAluAccesses            0                       # Number of vector alu accesses (Count)
system.cpu11.executeStats0.numDiscardedOps            0                       # Number of ops (including micro ops) which were discarded before commit (Count)
system.cpu11.fetchStats0.numInsts                   0                       # Number of instructions fetched (thread level) (Count)
system.cpu11.fetchStats0.numOps                     0                       # Number of ops (including micro ops) fetched (thread level) (Count)
system.cpu11.fetchStats0.fetchRate                nan                       # Number of inst fetches per cycle ((Count/Cycle))
system.cpu11.fetchStats0.branchRate               nan                       # Number of branch fetches per cycle (Ratio)
system.cpu11.fetchStats0.numFetchSuspends            0                       # Number of times Execute suspended instruction fetching (Count)
system.cpu11.mmu.dtb.readHits                       0                       # read hits (Count)
system.cpu11.mmu.dtb.readMisses                     0                       # read misses (Count)
system.cpu11.mmu.dtb.readAccesses                   0                       # read accesses (Count)
system.cpu11.mmu.dtb.writeHits                      0                       # write hits (Count)
system.cpu11.mmu.dtb.writeMisses                    0                       # write misses (Count)
system.cpu11.mmu.dtb.writeAccesses                  0                       # write accesses (Count)
system.cpu11.mmu.dtb.hits                           0                       # Total TLB (read and write) hits (Count)
system.cpu11.mmu.dtb.misses                         0                       # Total TLB (read and write) misses (Count)
system.cpu11.mmu.dtb.accesses                       0                       # Total TLB (read and write) accesses (Count)
system.cpu11.mmu.dtb.walker.power_state.pwrStateResidencyTicks::UNDEFINED 2632337158500                       # Cumulative time (in ticks) in various power states (Tick)
system.cpu11.mmu.itb.readHits                       0                       # read hits (Count)
system.cpu11.mmu.itb.readMisses                     0                       # read misses (Count)
system.cpu11.mmu.itb.readAccesses                   0                       # read accesses (Count)
system.cpu11.mmu.itb.writeHits                      0                       # write hits (Count)
system.cpu11.mmu.itb.writeMisses                    0                       # write misses (Count)
system.cpu11.mmu.itb.writeAccesses                  0                       # write accesses (Count)
system.cpu11.mmu.itb.hits                           0                       # Total TLB (read and write) hits (Count)
system.cpu11.mmu.itb.misses                         0                       # Total TLB (read and write) misses (Count)
system.cpu11.mmu.itb.accesses                       0                       # Total TLB (read and write) accesses (Count)
system.cpu11.mmu.itb.walker.power_state.pwrStateResidencyTicks::UNDEFINED 2632337158500                       # Cumulative time (in ticks) in various power states (Tick)
system.cpu11.power_state.pwrStateResidencyTicks::ON 2632337158500                       # Cumulative time (in ticks) in various power states (Tick)
system.cpu11.thread_0.numInsts                      0                       # Number of Instructions committed (Count)
system.cpu11.thread_0.numOps                        0                       # Number of Ops committed (Count)
system.cpu11.thread_0.numMemRefs                    0                       # Number of Memory References (Count)
system.cpu12.numCycles                              0                       # Number of cpu cycles simulated (Cycle)
system.cpu12.cpi                                  nan                       # CPI: cycles per instruction (core level) ((Cycle/Count))
system.cpu12.ipc                                  nan                       # IPC: instructions per cycle (core level) ((Count/Cycle))
[...]
system.ruby.network.data_traffic_distribution.n7.n27            0                       (Unspecified)
system.ruby.network.data_traffic_distribution.n7.n28            0                       (Unspecified)
system.ruby.network.data_traffic_distribution.n7.n29            0                       (Unspecified)
system.ruby.network.data_traffic_distribution.n7.n3            0                       (Unspecified)
system.ruby.network.data_traffic_distribution.n7.n30            0                       (Unspecified)
system.ruby.network.data_traffic_distribution.n7.n31            0                       (Unspecified)
system.ruby.network.data_traffic_distribution.n7.n32            0                       (Unspecified)
system.ruby.network.data_traffic_distribution.n7.n4            0                       (Unspecified)
system.ruby.network.data_traffic_distribution.n7.n5            0                       (Unspecified)
system.ruby.network.data_traffic_distribution.n7.n6            0                       (Unspecified)
system.ruby.network.data_traffic_distribution.n7.n7            0                       (Unspecified)
system.ruby.network.data_traffic_distribution.n7.n8            0                       (Unspecified)
system.ruby.network.data_traffic_distribution.n7.n9            0                       (Unspecified)
system.ruby.network.data_traffic_distribution.n8.n0            0                       (Unspecified)
system.ruby.network.data_traffic_distribution.n8.n1            0                       (Unspecified)
system.ruby.network.data_traffic_distribution.n8.n10            0                       (Unspecified)
system.ruby.network.data_traffic_distribution.n8.n11            0                       (Unspecified)
system.ruby.network.data_traffic_distribution.n8.n12            0                       (Unspecified)
system.ruby.network.data_traffic_distribution.n8.n13            0                       (Unspecified)
system.ruby.network.data_traffic_distribution.n8.n14            0                       (Unspecified)
system.ruby.network.data_traffic_distribution.n8.n15            0                       (Unspecified)
system.ruby.network.data_traffic_distribution.n8.n16            0                       (Unspecified)
system.ruby.network.data_traffic_distribution.n8.n17            0                       (Unspecified)
system.ruby.network.data_traffic_distribution.n8.n18            0                       (Unspecified)
system.ruby.network.data_traffic_distribution.n8.n19            0                       (Unspecified)
system.ruby.network.data_traffic_distribution.n8.n2            0                       (Unspecified)
system.ruby.network.data_traffic_distribution.n8.n20            0                       (Unspecified)
system.ruby.network.data_traffic_distribution.n8.n21            0                       (Unspecified)
system.ruby.network.data_traffic_distribution.n8.n22            0                       (Unspecified)
system.ruby.network.data_traffic_distribution.n8.n23            0                       (Unspecified)
system.ruby.network.data_traffic_distribution.n8.n24            0                       (Unspecified)
system.ruby.network.data_traffic_distribution.n8.n25            0                       (Unspecified)
system.ruby.network.data_traffic_distribution.n8.n26            0                       (Unspecified)
system.ruby.network.data_traffic_distribution.n8.n27            0                       (Unspecified)
system.ruby.network.data_traffic_distribution.n8.n28            0                       (Unspecified)
system.ruby.network.data_traffic_distribution.n8.n29            0                       (Unspecified)
system.ruby.network.data_traffic_distribution.n8.n3            0                       (Unspecified)
system.ruby.network.data_traffic_distribution.n8.n30            0                       (Unspecified)
system.ruby.network.data_traffic_distribution.n8.n31            0                       (Unspecified)
system.ruby.network.data_traffic_distribution.n8.n32            0                       (Unspecified)
system.ruby.network.data_traffic_distribution.n8.n4            0                       (Unspecified)
system.ruby.network.data_traffic_distribution.n8.n5            0                       (Unspecified)
system.ruby.network.data_traffic_distribution.n8.n6            0                       (Unspecified)
system.ruby.network.data_traffic_distribution.n8.n7            0                       (Unspecified)
system.ruby.network.data_traffic_distribution.n8.n8            0                       (Unspecified)
system.ruby.network.data_traffic_distribution.n8.n9            0                       (Unspecified)
system.ruby.network.data_traffic_distribution.n9.n0            0                       (Unspecified)
system.ruby.network.data_traffic_distribution.n9.n1            0                       (Unspecified)
system.ruby.network.data_traffic_distribution.n9.n10            0                       (Unspecified)
system.ruby.network.data_traffic_distribution.n9.n11            0                       (Unspecified)
system.ruby.network.data_traffic_distribution.n9.n12            0                       (Unspecified)
system.ruby.network.data_traffic_distribution.n9.n13            0                       (Unspecified)
system.ruby.network.data_traffic_distribution.n9.n14            0                       (Unspecified)
system.ruby.network.data_traffic_distribution.n9.n15            0                       (Unspecified)
system.ruby.network.data_traffic_distribution.n9.n16            0                       (Unspecified)
system.ruby.network.data_traffic_distribution.n9.n17            0                       (Unspecified)
system.ruby.network.data_traffic_distribution.n9.n18            0                       (Unspecified)
system.ruby.network.data_traffic_distribution.n9.n19            0                       (Unspecified)
system.ruby.network.data_traffic_distribution.n9.n2            0                       (Unspecified)
system.ruby.network.data_traffic_distribution.n9.n20            0                       (Unspecified)
system.ruby.network.data_traffic_distribution.n9.n21            0                       (Unspecified)
system.ruby.network.data_traffic_distribution.n9.n22            0                       (Unspecified)
system.ruby.network.data_traffic_distribution.n9.n23            0                       (Unspecified)
system.ruby.network.data_traffic_distribution.n9.n24            0                       (Unspecified)
system.ruby.network.data_traffic_distribution.n9.n25            0                       (Unspecified)
system.ruby.network.data_traffic_distribution.n9.n26            0                       (Unspecified)
system.ruby.network.data_traffic_distribution.n9.n27            0                       (Unspecified)
system.ruby.network.data_traffic_distribution.n9.n28            0                       (Unspecified)
system.ruby.network.data_traffic_distribution.n9.n29            0                       (Unspecified)
system.ruby.network.data_traffic_distribution.n9.n3            0                       (Unspecified)
system.ruby.network.data_traffic_distribution.n9.n30            0                       (Unspecified)
system.ruby.network.data_traffic_distribution.n9.n31            0                       (Unspecified)
system.ruby.network.data_traffic_distribution.n9.n32            0                       (Unspecified)
system.ruby.network.data_traffic_distribution.n9.n4            0                       (Unspecified)
system.ruby.network.data_traffic_distribution.n9.n5            0                       (Unspecified)
system.ruby.network.data_traffic_distribution.n9.n6            0                       (Unspecified)
system.ruby.network.data_traffic_distribution.n9.n7            0                       (Unspecified)
system.ruby.network.data_traffic_distribution.n9.n8            0                       (Unspecified)
system.ruby.network.data_traffic_distribution.n9.n9            0                       (Unspecified)
system.ruby.network.ext_in_link_utilization    245387595                       (Unspecified)
system.ruby.network.ext_out_link_utilization    245387595                       (Unspecified)
system.ruby.network.flit_network_latency |           0                       |           0                       |1145082986500                       | 71569655500                       |470351084000                       (Unspecified)
system.ruby.network.flit_queueing_latency |           0                       |           0                       |132912771000                       | 10228114000                       | 51144505000                       (Unspecified)
system.ruby.network.flits_injected       |           0      0.00%      0.00% |           0      0.00%      0.00% |   122688887     50.00%     50.00% |    20448473      8.33%     58.33% |   102250235     41.67%    100.00% (Unspecified)
system.ruby.network.flits_injected::total    245387595                       (Unspecified)
system.ruby.network.flits_received       |           0      0.00%      0.00% |           0      0.00%      0.00% |   122688887     50.00%     50.00% |    20448473      8.33%     58.33% |   102250235     41.67%    100.00% (Unspecified)
system.ruby.network.flits_received::total    245387595                       (Unspecified)
system.ruby.network.int_link_utilization    490775190                       (Unspecified)
system.ruby.network.packet_network_latency |           0                       |           0                       |552097713500                       | 71569655500                       |122700282000                       (Unspecified)
system.ruby.network.packet_queueing_latency |           0                       |           0                       | 51121699000                       | 10228114000                       | 10228901000                       (Unspecified)
system.ruby.network.packets_injected     |           0      0.00%      0.00% |           0      0.00%      0.00% |    40897815     50.00%     50.00% |    20448473     25.00%     75.00% |    20450047     25.00%    100.00% (Unspecified)
system.ruby.network.packets_injected::total     81796335                       (Unspecified)
system.ruby.network.packets_received     |           0      0.00%      0.00% |           0      0.00%      0.00% |    40897815     50.00%     50.00% |    20448473     25.00%     75.00% |    20450047     25.00%    100.00% (Unspecified)
system.ruby.network.packets_received::total     81796335                       (Unspecified)
system.ruby.network.routers00.buffer_reads        22638                       (Unspecified)
system.ruby.network.routers00.buffer_writes        22638                       (Unspecified)
system.ruby.network.routers00.crossbar_activity        22638                       (Unspecified)
system.ruby.network.routers00.sw_input_arbiter_activity        22638                       (Unspecified)
system.ruby.network.routers00.sw_output_arbiter_activity        22638                       (Unspecified)
system.ruby.network.routers01.buffer_reads    245368482                       (Unspecified)
system.ruby.network.routers01.buffer_writes    245368482                       (Unspecified)
system.ruby.network.routers01.crossbar_activity    245368482                       (Unspecified)
system.ruby.network.routers01.sw_input_arbiter_activity    245368482                       (Unspecified)
system.ruby.network.routers01.sw_output_arbiter_activity    245368482                       (Unspecified)
system.ruby.network.routers16.buffer_reads     15069664                       (Unspecified)
system.ruby.network.routers16.buffer_writes     15069664                       (Unspecified)
system.ruby.network.routers16.crossbar_activity     15069664                       (Unspecified)
system.ruby.network.routers16.sw_input_arbiter_activity     15069664                       (Unspecified)
system.ruby.network.routers16.sw_output_arbiter_activity     15069664                       (Unspecified)
system.ruby.network.routers17.buffer_reads     15582694                       (Unspecified)
system.ruby.network.routers17.buffer_writes     15582694                       (Unspecified)
system.ruby.network.routers17.crossbar_activity     15582694                       (Unspecified)
system.ruby.network.routers17.sw_input_arbiter_activity     15582694                       (Unspecified)
system.ruby.network.routers17.sw_output_arbiter_activity     15582694                       (Unspecified)
system.ruby.network.routers18.buffer_reads     15533210                       (Unspecified)
system.ruby.network.routers18.buffer_writes     15533210                       (Unspecified)
system.ruby.network.routers18.crossbar_activity     15533210                       (Unspecified)
system.ruby.network.routers18.sw_input_arbiter_activity     15533210                       (Unspecified)
system.ruby.network.routers18.sw_output_arbiter_activity     15533210                       (Unspecified)
system.ruby.network.routers19.buffer_reads     15110808                       (Unspecified)
system.ruby.network.routers19.buffer_writes     15110808                       (Unspecified)
system.ruby.network.routers19.crossbar_activity     15110808                       (Unspecified)
system.ruby.network.routers19.sw_input_arbiter_activity     15110808                       (Unspecified)
system.ruby.network.routers19.sw_output_arbiter_activity     15110808                       (Unspecified)
system.ruby.network.routers20.buffer_reads     15222958                       (Unspecified)
system.ruby.network.routers20.buffer_writes     15222958                       (Unspecified)
system.ruby.network.routers20.crossbar_activity     15222958                       (Unspecified)
system.ruby.network.routers20.sw_input_arbiter_activity     15222958                       (Unspecified)
system.ruby.network.routers20.sw_output_arbiter_activity     15222958                       (Unspecified)
system.ruby.network.routers21.buffer_reads     15227082                       (Unspecified)
system.ruby.network.routers21.buffer_writes     15227082                       (Unspecified)
system.ruby.network.routers21.crossbar_activity     15227082                       (Unspecified)
system.ruby.network.routers21.sw_input_arbiter_activity     15227082                       (Unspecified)
system.ruby.network.routers21.sw_output_arbiter_activity     15227082                       (Unspecified)
system.ruby.network.routers22.buffer_reads     15472156                       (Unspecified)
system.ruby.network.routers22.buffer_writes     15472156                       (Unspecified)
system.ruby.network.routers22.crossbar_activity     15472156                       (Unspecified)
system.ruby.network.routers22.sw_input_arbiter_activity     15472156                       (Unspecified)
system.ruby.network.routers22.sw_output_arbiter_activity     15472156                       (Unspecified)
system.ruby.network.routers23.buffer_reads     15326480                       (Unspecified)
system.ruby.network.routers23.buffer_writes     15326480                       (Unspecified)
system.ruby.network.routers23.crossbar_activity     15326480                       (Unspecified)
system.ruby.network.routers23.sw_input_arbiter_activity     15326480                       (Unspecified)
system.ruby.network.routers23.sw_output_arbiter_activity     15326480                       (Unspecified)
system.ruby.network.routers24.buffer_reads     15245144                       (Unspecified)
system.ruby.network.routers24.buffer_writes     15245144                       (Unspecified)
system.ruby.network.routers24.crossbar_activity     15245144                       (Unspecified)
system.ruby.network.routers24.sw_input_arbiter_activity     15245144                       (Unspecified)
system.ruby.network.routers24.sw_output_arbiter_activity     15245144                       (Unspecified)
system.ruby.network.routers25.buffer_reads     15280530                       (Unspecified)
system.ruby.network.routers25.buffer_writes     15280530                       (Unspecified)
system.ruby.network.routers25.crossbar_activity     15280530                       (Unspecified)
system.ruby.network.routers25.sw_input_arbiter_activity     15280530                       (Unspecified)
system.ruby.network.routers25.sw_output_arbiter_activity     15280530                       (Unspecified)
system.ruby.network.routers26.buffer_reads     15201940                       (Unspecified)
system.ruby.network.routers26.buffer_writes     15201940                       (Unspecified)
system.ruby.network.routers26.crossbar_activity     15201940                       (Unspecified)
system.ruby.network.routers26.sw_input_arbiter_activity     15201940                       (Unspecified)
system.ruby.network.routers26.sw_output_arbiter_activity     15201940                       (Unspecified)
system.ruby.network.routers27.buffer_reads     15306608                       (Unspecified)
system.ruby.network.routers27.buffer_writes     15306608                       (Unspecified)
system.ruby.network.routers27.crossbar_activity     15306608                       (Unspecified)
system.ruby.network.routers27.sw_input_arbiter_activity     15306608                       (Unspecified)
system.ruby.network.routers27.sw_output_arbiter_activity     15306608                       (Unspecified)
system.ruby.network.routers28.buffer_reads     15230032                       (Unspecified)
system.ruby.network.routers28.buffer_writes     15230032                       (Unspecified)
system.ruby.network.routers28.crossbar_activity     15230032                       (Unspecified)
system.ruby.network.routers28.sw_input_arbiter_activity     15230032                       (Unspecified)
system.ruby.network.routers28.sw_output_arbiter_activity     15230032                       (Unspecified)
system.ruby.network.routers29.buffer_reads     15602452                       (Unspecified)
system.ruby.network.routers29.buffer_writes     15602452                       (Unspecified)
system.ruby.network.routers29.crossbar_activity     15602452                       (Unspecified)
system.ruby.network.routers29.sw_input_arbiter_activity     15602452                       (Unspecified)
system.ruby.network.routers29.sw_output_arbiter_activity     15602452                       (Unspecified)
system.ruby.network.routers30.buffer_reads     15757786                       (Unspecified)
system.ruby.network.routers30.buffer_writes     15757786                       (Unspecified)
system.ruby.network.routers30.crossbar_activity     15757786                       (Unspecified)
system.ruby.network.routers30.sw_input_arbiter_activity     15757786                       (Unspecified)
system.ruby.network.routers30.sw_output_arbiter_activity     15757786                       (Unspecified)
system.ruby.network.routers31.buffer_reads     15214526                       (Unspecified)
system.ruby.network.routers31.buffer_writes     15214526                       (Unspecified)
system.ruby.network.routers31.crossbar_activity     15214526                       (Unspecified)
system.ruby.network.routers31.sw_input_arbiter_activity     15214526                       (Unspecified)
system.ruby.network.routers31.sw_output_arbiter_activity     15214526                       (Unspecified)
system.ruby.network.routers32.buffer_reads    245387595                       (Unspecified)
system.ruby.network.routers32.buffer_writes    245387595                       (Unspecified)
system.ruby.network.routers32.crossbar_activity    245387595                       (Unspecified)
system.ruby.network.routers32.sw_input_arbiter_activity    245387595                       (Unspecified)
system.ruby.network.routers32.sw_output_arbiter_activity    245387595                       (Unspecified)

---------- End Simulation Statistics   ----------
