
---------- Begin Simulation Statistics ----------
simSeconds                                   0.123644                       # Number of seconds simulated (Second)
simTicks                                 123643943500                       # Number of ticks simulated (Tick)
finalTick                                123643943500                       # Number of ticks from beginning of simulation (restored from checkpoints and never reset) (Tick)
simFreq                                  1000000000000                       # The number of ticks per simulated second ((Tick/Second))
hostSeconds                                   1282.87                       # Real time elapsed on the host (Second)
hostTickRate                                 96380563                       # The number of ticks simulated per host second (ticks/s) ((Tick/Second))
hostMemory                                     835672                       # Number of bytes of host memory used (Byte)
simInsts                                     70645023                       # Number of instructions simulated (Count)
simOps                                       70645156                       # Number of ops (including micro ops) simulated (Count)
hostInstRate                                    55068                       # Simulator instruction rate (inst/s) ((Count/Second))
hostOpRate                                      55068                       # Simulator op (including micro ops) rate (op/s) ((Count/Second))
system.clk_domain.clock                          1000                       # Clock period in ticks (Tick)
system.cpu0.numCycles                       247287887                       # Number of cpu cycles simulated (Cycle)
system.cpu0.cpi                             58.873246                       # CPI: cycles per instruction (core level) ((Cycle/Count))
system.cpu0.ipc                              0.016986                       # IPC: instructions per cycle (core level) ((Count/Cycle))
system.cpu0.numWorkItemsStarted                     0                       # Number of work items this cpu started (Count)
system.cpu0.numWorkItemsCompleted                   0                       # Number of work items this cpu completed (Count)
system.cpu0.commitStats0.numInsts             4200344                       # Number of instructions committed (thread level) (Count)
system.cpu0.commitStats0.numOps               4200453                       # Number of ops (including micro ops) committed (thread level) (Count)
system.cpu0.commitStats0.numInstsNotNOP             0                       # Number of instructions committed excluding NOPs or prefetches (Count)
system.cpu0.commitStats0.numOpsNotNOP               0                       # Number of Ops (including micro ops) Simulated (Count)
system.cpu0.commitStats0.cpi                58.873246                       # CPI: cycles per instruction (thread level) ((Cycle/Count))
system.cpu0.commitStats0.ipc                 0.016986                       # IPC: instructions per cycle (thread level) ((Count/Cycle))
system.cpu0.commitStats0.numMemRefs                 0                       # Number of memory references committed (Count)
system.cpu0.commitStats0.numFpInsts           1650686                       # Number of float instructions (Count)
system.cpu0.commitStats0.numIntInsts          3798618                       # Number of integer instructions (Count)
system.cpu0.commitStats0.numLoadInsts          991731                       # Number of load instructions (Count)
system.cpu0.commitStats0.numStoreInsts         546326                       # Number of store instructions (Count)
system.cpu0.commitStats0.numVecInsts                0                       # Number of vector instructions (Count)
system.cpu0.commitStats0.committedInstType::No_OpClass          256      0.01%      0.01% # Class of committed instruction. (Count)
system.cpu0.commitStats0.committedInstType::IntAlu      2227732     53.04%     53.04% # Class of committed instruction. (Count)
system.cpu0.commitStats0.committedInstType::IntMult         4561      0.11%     53.15% # Class of committed instruction. (Count)
system.cpu0.commitStats0.committedInstType::IntDiv          132      0.00%     53.15% # Class of committed instruction. (Count)
system.cpu0.commitStats0.committedInstType::FloatAdd        20005      0.48%     53.63% # Class of committed instruction. (Count)
system.cpu0.commitStats0.committedInstType::FloatCmp        30425      0.72%     54.35% # Class of committed instruction. (Count)
system.cpu0.commitStats0.committedInstType::FloatCvt           83      0.00%     54.36% # Class of committed instruction. (Count)
system.cpu0.commitStats0.committedInstType::FloatMult         4953      0.12%     54.47% # Class of committed instruction. (Count)
system.cpu0.commitStats0.committedInstType::FloatMultAcc       348250      8.29%     62.76% # Class of committed instruction. (Count)
system.cpu0.commitStats0.committedInstType::FloatDiv          210      0.00%     62.77% # Class of committed instruction. (Count)
system.cpu0.commitStats0.committedInstType::FloatMisc        25789      0.61%     63.38% # Class of committed instruction. (Count)
system.cpu0.commitStats0.committedInstType::FloatSqrt            0      0.00%     63.38% # Class of committed instruction. (Count)
system.cpu0.commitStats0.committedInstType::SimdAdd            0      0.00%     63.38% # Class of committed instruction. (Count)
system.cpu0.commitStats0.committedInstType::SimdAddAcc            0      0.00%     63.38% # Class of committed instruction. (Count)
system.cpu0.commitStats0.committedInstType::SimdAlu            0      0.00%     63.38% # Class of committed instruction. (Count)
system.cpu0.commitStats0.committedInstType::SimdCmp            0      0.00%     63.38% # Class of committed instruction. (Count)
system.cpu0.commitStats0.committedInstType::SimdCvt            0      0.00%     63.38% # Class of committed instruction. (Count)
system.cpu0.commitStats0.committedInstType::SimdMisc            0      0.00%     63.38% # Class of committed instruction. (Count)
system.cpu0.commitStats0.committedInstType::SimdMult            0      0.00%     63.38% # Class of committed instruction. (Count)
system.cpu0.commitStats0.committedInstType::SimdMultAcc            0      0.00%     63.38% # Class of committed instruction. (Count)
system.cpu0.commitStats0.committedInstType::SimdMatMultAcc            0      0.00%     63.38% # Class of committed instruction. (Count)
system.cpu0.commitStats0.committedInstType::SimdShift            0      0.00%     63.38% # Class of committed instruction. (Count)
system.cpu0.commitStats0.committedInstType::SimdShiftAcc            0      0.00%     63.38% # Class of committed instruction. (Count)
system.cpu0.commitStats0.committedInstType::SimdDiv            0      0.00%     63.38% # Class of committed instruction. (Count)
system.cpu0.commitStats0.committedInstType::SimdSqrt            0      0.00%     63.38% # Class of committed instruction. (Count)
system.cpu0.commitStats0.committedInstType::SimdFloatAdd            0      0.00%     63.38% # Class of committed instruction. (Count)
system.cpu0.commitStats0.committedInstType::SimdFloatAlu            0      0.00%     63.38% # Class of committed instruction. (Count)
system.cpu0.commitStats0.committedInstType::SimdFloatCmp            0      0.00%     63.38% # Class of committed instruction. (Count)
system.cpu0.commitStats0.committedInstType::SimdFloatCvt            0      0.00%     63.38% # Class of committed instruction. (Count)
system.cpu0.commitStats0.committedInstType::SimdFloatDiv            0      0.00%     63.38% # Class of committed instruction. (Count)
system.cpu0.commitStats0.committedInstType::SimdFloatMisc            0      0.00%     63.38% # Class of committed instruction. (Count)
system.cpu0.commitStats0.committedInstType::SimdFloatMult            0      0.00%     63.38% # Class of committed instruction. (Count)
system.cpu0.commitStats0.committedInstType::SimdFloatMultAcc            0      0.00%     63.38% # Class of committed instruction. (Count)
system.cpu0.commitStats0.committedInstType::SimdFloatMatMultAcc            0      0.00%     63.38% # Class of committed instruction. (Count)
system.cpu0.commitStats0.committedInstType::SimdFloatSqrt            0      0.00%     63.38% # Class of committed instruction. (Count)
system.cpu0.commitStats0.committedInstType::SimdReduceAdd            0      0.00%     63.38% # Class of committed instruction. (Count)
system.cpu0.commitStats0.committedInstType::SimdReduceAlu            0      0.00%     63.38% # Class of committed instruction. (Count)
system.cpu0.commitStats0.committedInstType::SimdReduceCmp            0      0.00%     63.38% # Class of committed instruction. (Count)
system.cpu0.commitStats0.committedInstType::SimdFloatReduceAdd            0      0.00%     63.38% # Class of committed instruction. (Count)
system.cpu0.commitStats0.committedInstType::SimdFloatReduceCmp            0      0.00%     63.38% # Class of committed instruction. (Count)
system.cpu0.commitStats0.committedInstType::SimdAes            0      0.00%     63.38% # Class of committed instruction. (Count)
system.cpu0.commitStats0.committedInstType::SimdAesMix            0      0.00%     63.38% # Class of committed instruction. (Count)
system.cpu0.commitStats0.committedInstType::SimdSha1Hash            0      0.00%     63.38% # Class of committed instruction. (Count)
system.cpu0.commitStats0.committedInstType::SimdSha1Hash2            0      0.00%     63.38% # Class of committed instruction. (Count)
system.cpu0.commitStats0.committedInstType::SimdSha256Hash            0      0.00%     63.38% # Class of committed instruction. (Count)
system.cpu0.commitStats0.committedInstType::SimdSha256Hash2            0      0.00%     63.38% # Class of committed instruction. (Count)
system.cpu0.commitStats0.committedInstType::SimdShaSigma2            0      0.00%     63.38% # Class of committed instruction. (Count)
system.cpu0.commitStats0.committedInstType::SimdShaSigma3            0      0.00%     63.38% # Class of committed instruction. (Count)
system.cpu0.commitStats0.committedInstType::SimdPredAlu            0      0.00%     63.38% # Class of committed instruction. (Count)
system.cpu0.commitStats0.committedInstType::Matrix            0      0.00%     63.38% # Class of committed instruction. (Count)
system.cpu0.commitStats0.committedInstType::MatrixMov            0      0.00%     63.38% # Class of committed instruction. (Count)
system.cpu0.commitStats0.committedInstType::MatrixOP            0      0.00%     63.38% # Class of committed instruction. (Count)
system.cpu0.commitStats0.committedInstType::MemRead       189554      4.51%     67.90% # Class of committed instruction. (Count)
system.cpu0.commitStats0.committedInstType::MemWrite       127532      3.04%     70.93% # Class of committed instruction. (Count)
system.cpu0.commitStats0.committedInstType::FloatMemRead       802232     19.10%     90.03% # Class of committed instruction. (Count)
system.cpu0.commitStats0.committedInstType::FloatMemWrite       418739      9.97%    100.00% # Class of committed instruction. (Count)
system.cpu0.commitStats0.committedInstType::IprAccess            0      0.00%    100.00% # Class of committed instruction. (Count)
system.cpu0.commitStats0.committedInstType::InstPrefetch            0      0.00%    100.00% # Class of committed instruction. (Count)
system.cpu0.commitStats0.committedInstType::VectorUnitStrideLoad            0      0.00%    100.00% # Class of committed instruction. (Count)
system.cpu0.commitStats0.committedInstType::VectorUnitStrideStore            0      0.00%    100.00% # Class of committed instruction. (Count)
system.cpu0.commitStats0.committedInstType::VectorUnitStrideMaskLoad            0      0.00%    100.00% # Class of committed instruction. (Count)
system.cpu0.commitStats0.committedInstType::VectorUnitStrideMaskStore            0      0.00%    100.00% # Class of committed instruction. (Count)
system.cpu0.commitStats0.committedInstType::VectorStridedLoad            0      0.00%    100.00% # Class of committed instruction. (Count)
system.cpu0.commitStats0.committedInstType::VectorStridedStore            0      0.00%    100.00% # Class of committed instruction. (Count)
system.cpu0.commitStats0.committedInstType::VectorIndexedLoad            0      0.00%    100.00% # Class of committed instruction. (Count)
system.cpu0.commitStats0.committedInstType::VectorIndexedStore            0      0.00%    100.00% # Class of committed instruction. (Count)
system.cpu0.commitStats0.committedInstType::VectorUnitStrideFaultOnlyFirstLoad            0      0.00%    100.00% # Class of committed instruction. (Count)
system.cpu0.commitStats0.committedInstType::VectorWholeRegisterLoad            0      0.00%    100.00% # Class of committed instruction. (Count)
system.cpu0.commitStats0.committedInstType::VectorWholeRegisterStore            0      0.00%    100.00% # Class of committed instruction. (Count)
system.cpu0.commitStats0.committedInstType::VectorIntegerArith            0      0.00%    100.00% # Class of committed instruction. (Count)
system.cpu0.commitStats0.committedInstType::VectorFloatArith            0      0.00%    100.00% # Class of committed instruction. (Count)
system.cpu0.commitStats0.committedInstType::VectorFloatConvert            0      0.00%    100.00% # Class of committed instruction. (Count)
system.cpu0.commitStats0.committedInstType::VectorIntegerReduce            0      0.00%    100.00% # Class of committed instruction. (Count)
system.cpu0.commitStats0.committedInstType::VectorFloatReduce            0      0.00%    100.00% # Class of committed instruction. (Count)
system.cpu0.commitStats0.committedInstType::VectorMisc            0      0.00%    100.00% # Class of committed instruction. (Count)
system.cpu0.commitStats0.committedInstType::VectorIntegerExtension            0      0.00%    100.00% # Class of committed instruction. (Count)
system.cpu0.commitStats0.committedInstType::VectorConfig            0      0.00%    100.00% # Class of committed instruction. (Count)
system.cpu0.commitStats0.committedInstType::total      4200453                       # Class of committed instruction. (Count)
system.cpu0.commitStats0.committedControl::IsControl       579166                       # Class of control type instructions committed (Count)
system.cpu0.commitStats0.committedControl::IsDirectControl       551292                       # Class of control type instructions committed (Count)
system.cpu0.commitStats0.committedControl::IsIndirectControl        27874                       # Class of control type instructions committed (Count)
system.cpu0.commitStats0.committedControl::IsCondControl       521391                       # Class of control type instructions committed (Count)
system.cpu0.commitStats0.committedControl::IsUncondControl        57775                       # Class of control type instructions committed (Count)
system.cpu0.commitStats0.committedControl::IsCall        27383                       # Class of control type instructions committed (Count)
system.cpu0.commitStats0.committedControl::IsReturn        27379                       # Class of control type instructions committed (Count)
system.cpu0.exec_context.thread_0.numMatAluAccesses            0                       # Number of matrix alu accesses (Count)
system.cpu0.exec_context.thread_0.numCallsReturns        54762                       # Number of times a function call or return occured (Count)
system.cpu0.exec_context.thread_0.numMatInsts            0                       # Number of matrix instructions (Count)
system.cpu0.exec_context.thread_0.numIdleCycles 232563900.000119                       # Number of idle cycles (Cycle)
system.cpu0.exec_context.thread_0.numBusyCycles 14723986.999881                       # Number of busy cycles (Cycle)
system.cpu0.exec_context.thread_0.notIdleFraction     0.059542                       # Percentage of non-idle cycles (Ratio)
system.cpu0.exec_context.thread_0.idleFraction     0.940458                       # Percentage of idle cycles (Ratio)
system.cpu0.executeStats0.numInsts                  0                       # Number of executed instructions (Count)
system.cpu0.executeStats0.numNop                    0                       # Number of nop insts executed (Count)
system.cpu0.executeStats0.numBranches               0                       # Number of branches executed (Count)
system.cpu0.executeStats0.numLoadInsts              0                       # Number of load instructions executed (Count)
system.cpu0.executeStats0.numStoreInsts       1538057                       # Number of stores executed (Count)
system.cpu0.executeStats0.instRate                  0                       # Inst execution rate ((Count/Cycle))
system.cpu0.executeStats0.numFpAluAccesses      1650686                       # Number of float alu accesses (Count)
system.cpu0.executeStats0.numFpRegReads       1626274                       # Number of times the floating registers were read (Count)
system.cpu0.executeStats0.numFpRegWrites      1201501                       # Number of times the floating registers were written (Count)
system.cpu0.executeStats0.numIntAluAccesses      3798618                       # Number of integer alu accesses (Count)
system.cpu0.executeStats0.numIntRegReads      4400199                       # Number of times the integer registers were read (Count)
system.cpu0.executeStats0.numIntRegWrites      1900767                       # Number of times the integer registers were written (Count)
system.cpu0.executeStats0.numMemRefs          1538057                       # Number of memory refs (Count)
system.cpu0.executeStats0.numMiscRegReads      2453960                       # Number of times the Misc registers were read (Count)
system.cpu0.executeStats0.numMiscRegWrites      1661662                       # Number of times the Misc registers were written (Count)
system.cpu0.executeStats0.numVecAluAccesses            0                       # Number of vector alu accesses (Count)
system.cpu0.executeStats0.numDiscardedOps            0                       # Number of ops (including micro ops) which were discarded before commit (Count)
system.cpu0.fetchStats0.numInsts              4200344                       # Number of instructions fetched (thread level) (Count)
system.cpu0.fetchStats0.numOps                4200453                       # Number of ops (including micro ops) fetched (thread level) (Count)
system.cpu0.fetchStats0.fetchRate            0.016986                       # Number of inst fetches per cycle ((Count/Cycle))
system.cpu0.fetchStats0.numBranches            579166                       # Number of branches fetched (Count)
system.cpu0.fetchStats0.branchRate           0.002342                       # Number of branch fetches per cycle (Ratio)
system.cpu0.fetchStats0.numFetchSuspends            0                       # Number of times Execute suspended instruction fetching (Count)
system.cpu0.mmu.dtb.readHits                        0                       # read hits (Count)
system.cpu0.mmu.dtb.readMisses                      0                       # read misses (Count)
system.cpu0.mmu.dtb.readAccesses                    0                       # read accesses (Count)
system.cpu0.mmu.dtb.writeHits                       0                       # write hits (Count)
system.cpu0.mmu.dtb.writeMisses                     0                       # write misses (Count)
system.cpu0.mmu.dtb.writeAccesses                   0                       # write accesses (Count)
system.cpu0.mmu.dtb.hits                            0                       # Total TLB (read and write) hits (Count)
system.cpu0.mmu.dtb.misses                          0                       # Total TLB (read and write) misses (Count)
system.cpu0.mmu.dtb.accesses                        0                       # Total TLB (read and write) accesses (Count)
system.cpu0.mmu.dtb.walker.power_state.pwrStateResidencyTicks::UNDEFINED 123643943500                       # Cumulative time (in ticks) in various power states (Tick)
system.cpu0.mmu.itb.readHits                        0                       # read hits (Count)
system.cpu0.mmu.itb.readMisses                      0                       # read misses (Count)
system.cpu0.mmu.itb.readAccesses                    0                       # read accesses (Count)
system.cpu0.mmu.itb.writeHits                       0                       # write hits (Count)
system.cpu0.mmu.itb.writeMisses                     0                       # write misses (Count)
system.cpu0.mmu.itb.writeAccesses                   0                       # write accesses (Count)
system.cpu0.mmu.itb.hits                            0                       # Total TLB (read and write) hits (Count)
system.cpu0.mmu.itb.misses                          0                       # Total TLB (read and write) misses (Count)
system.cpu0.mmu.itb.accesses                        0                       # Total TLB (read and write) accesses (Count)
system.cpu0.mmu.itb.walker.power_state.pwrStateResidencyTicks::UNDEFINED 123643943500                       # Cumulative time (in ticks) in various power states (Tick)
system.cpu0.power_state.numTransitions              2                       # Number of power state transitions (Count)
system.cpu0.power_state.ticksClkGated::samples            1                       # Distribution of time spent in the clock gated state (Tick)
system.cpu0.power_state.ticksClkGated::mean 116281950000                       # Distribution of time spent in the clock gated state (Tick)
system.cpu0.power_state.ticksClkGated::1e+11-1.5e+11            1    100.00%    100.00% # Distribution of time spent in the clock gated state (Tick)
system.cpu0.power_state.ticksClkGated::min_value 116281950000                       # Distribution of time spent in the clock gated state (Tick)
system.cpu0.power_state.ticksClkGated::max_value 116281950000                       # Distribution of time spent in the clock gated state (Tick)
system.cpu0.power_state.ticksClkGated::total            1                       # Distribution of time spent in the clock gated state (Tick)
system.cpu0.power_state.pwrStateResidencyTicks::ON   7361993500                       # Cumulative time (in ticks) in various power states (Tick)
system.cpu0.power_state.pwrStateResidencyTicks::CLK_GATED 116281950000                       # Cumulative time (in ticks) in various power states (Tick)
system.cpu0.thread_0.numInsts                       0                       # Number of Instructions committed (Count)
system.cpu0.thread_0.numOps                         0                       # Number of Ops committed (Count)
system.cpu0.thread_0.numMemRefs                     0                       # Number of Memory References (Count)
system.cpu0.workload.numSyscalls                   51                       # Number of system calls (Count)
system.cpu1.numCycles                       246996300                       # Number of cpu cycles simulated (Cycle)
system.cpu1.cpi                              3.717317                       # CPI: cycles per instruction (core level) ((Cycle/Count))
system.cpu1.ipc                              0.269011                       # IPC: instructions per cycle (core level) ((Count/Cycle))
system.cpu1.numWorkItemsStarted                     0                       # Number of work items this cpu started (Count)
system.cpu1.numWorkItemsCompleted                   0                       # Number of work items this cpu completed (Count)
system.cpu1.commitStats0.numInsts            66444769                       # Number of instructions committed (thread level) (Count)
system.cpu1.commitStats0.numOps              66444793                       # Number of ops (including micro ops) committed (thread level) (Count)
system.cpu1.commitStats0.numInstsNotNOP             0                       # Number of instructions committed excluding NOPs or prefetches (Count)
system.cpu1.commitStats0.numOpsNotNOP               0                       # Number of Ops (including micro ops) Simulated (Count)
system.cpu1.commitStats0.cpi                 3.717317                       # CPI: cycles per instruction (thread level) ((Cycle/Count))
system.cpu1.commitStats0.ipc                 0.269011                       # IPC: instructions per cycle (thread level) ((Count/Cycle))
system.cpu1.commitStats0.numMemRefs                 0                       # Number of memory references committed (Count)
system.cpu1.commitStats0.numFpInsts          31702137                       # Number of float instructions (Count)
system.cpu1.commitStats0.numIntInsts         58689495                       # Number of integer instructions (Count)
system.cpu1.commitStats0.numLoadInsts        16017819                       # Number of load instructions (Count)
system.cpu1.commitStats0.numStoreInsts        8579370                       # Number of store instructions (Count)
system.cpu1.commitStats0.numVecInsts                0                       # Number of vector instructions (Count)
system.cpu1.commitStats0.committedInstType::No_OpClass           54      0.00%      0.00% # Class of committed instruction. (Count)
system.cpu1.commitStats0.committedInstType::IntAlu     33674604     50.68%     50.68% # Class of committed instruction. (Count)
system.cpu1.commitStats0.committedInstType::IntMult           47      0.00%     50.68% # Class of committed instruction. (Count)
system.cpu1.commitStats0.committedInstType::IntDiv           20      0.00%     50.68% # Class of committed instruction. (Count)
system.cpu1.commitStats0.committedInstType::FloatAdd       212122      0.32%     51.00% # Class of committed instruction. (Count)
system.cpu1.commitStats0.committedInstType::FloatCmp       424179      0.64%     51.64% # Class of committed instruction. (Count)
system.cpu1.commitStats0.committedInstType::FloatCvt          113      0.00%     51.64% # Class of committed instruction. (Count)
system.cpu1.commitStats0.committedInstType::FloatMult       103950      0.16%     51.80% # Class of committed instruction. (Count)
system.cpu1.commitStats0.committedInstType::FloatMultAcc      7103250     10.69%     62.49% # Class of committed instruction. (Count)
system.cpu1.commitStats0.committedInstType::FloatDiv         4202      0.01%     62.49% # Class of committed instruction. (Count)
system.cpu1.commitStats0.committedInstType::FloatMisc       325063      0.49%     62.98% # Class of committed instruction. (Count)
system.cpu1.commitStats0.committedInstType::FloatSqrt            0      0.00%     62.98% # Class of committed instruction. (Count)
system.cpu1.commitStats0.committedInstType::SimdAdd            0      0.00%     62.98% # Class of committed instruction. (Count)
system.cpu1.commitStats0.committedInstType::SimdAddAcc            0      0.00%     62.98% # Class of committed instruction. (Count)
system.cpu1.commitStats0.committedInstType::SimdAlu            0      0.00%     62.98% # Class of committed instruction. (Count)
system.cpu1.commitStats0.committedInstType::SimdCmp            0      0.00%     62.98% # Class of committed instruction. (Count)
system.cpu1.commitStats0.committedInstType::SimdCvt            0      0.00%     62.98% # Class of committed instruction. (Count)
system.cpu1.commitStats0.committedInstType::SimdMisc            0      0.00%     62.98% # Class of committed instruction. (Count)
system.cpu1.commitStats0.committedInstType::SimdMult            0      0.00%     62.98% # Class of committed instruction. (Count)
system.cpu1.commitStats0.committedInstType::SimdMultAcc            0      0.00%     62.98% # Class of committed instruction. (Count)
system.cpu1.commitStats0.committedInstType::SimdMatMultAcc            0      0.00%     62.98% # Class of committed instruction. (Count)
system.cpu1.commitStats0.committedInstType::SimdShift            0      0.00%     62.98% # Class of committed instruction. (Count)
system.cpu1.commitStats0.committedInstType::SimdShiftAcc            0      0.00%     62.98% # Class of committed instruction. (Count)
system.cpu1.commitStats0.committedInstType::SimdDiv            0      0.00%     62.98% # Class of committed instruction. (Count)
system.cpu1.commitStats0.committedInstType::SimdSqrt            0      0.00%     62.98% # Class of committed instruction. (Count)
system.cpu1.commitStats0.committedInstType::SimdFloatAdd            0      0.00%     62.98% # Class of committed instruction. (Count)
system.cpu1.commitStats0.committedInstType::SimdFloatAlu            0      0.00%     62.98% # Class of committed instruction. (Count)
system.cpu1.commitStats0.committedInstType::SimdFloatCmp            0      0.00%     62.98% # Class of committed instruction. (Count)
system.cpu1.commitStats0.committedInstType::SimdFloatCvt            0      0.00%     62.98% # Class of committed instruction. (Count)
system.cpu1.commitStats0.committedInstType::SimdFloatDiv            0      0.00%     62.98% # Class of committed instruction. (Count)
system.cpu1.commitStats0.committedInstType::SimdFloatMisc            0      0.00%     62.98% # Class of committed instruction. (Count)
system.cpu1.commitStats0.committedInstType::SimdFloatMult            0      0.00%     62.98% # Class of committed instruction. (Count)
system.cpu1.commitStats0.committedInstType::SimdFloatMultAcc            0      0.00%     62.98% # Class of committed instruction. (Count)
system.cpu1.commitStats0.committedInstType::SimdFloatMatMultAcc            0      0.00%     62.98% # Class of committed instruction. (Count)
system.cpu1.commitStats0.committedInstType::SimdFloatSqrt            0      0.00%     62.98% # Class of committed instruction. (Count)
system.cpu1.commitStats0.committedInstType::SimdReduceAdd            0      0.00%     62.98% # Class of committed instruction. (Count)
system.cpu1.commitStats0.committedInstType::SimdReduceAlu            0      0.00%     62.98% # Class of committed instruction. (Count)
system.cpu1.commitStats0.committedInstType::SimdReduceCmp            0      0.00%     62.98% # Class of committed instruction. (Count)
system.cpu1.commitStats0.committedInstType::SimdFloatReduceAdd            0      0.00%     62.98% # Class of committed instruction. (Count)
system.cpu1.commitStats0.committedInstType::SimdFloatReduceCmp            0      0.00%     62.98% # Class of committed instruction. (Count)
system.cpu1.commitStats0.committedInstType::SimdAes            0      0.00%     62.98% # Class of committed instruction. (Count)
system.cpu1.commitStats0.committedInstType::SimdAesMix            0      0.00%     62.98% # Class of committed instruction. (Count)
system.cpu1.commitStats0.committedInstType::SimdSha1Hash            0      0.00%     62.98% # Class of committed instruction. (Count)
system.cpu1.commitStats0.committedInstType::SimdSha1Hash2            0      0.00%     62.98% # Class of committed instruction. (Count)
system.cpu1.commitStats0.committedInstType::SimdSha256Hash            0      0.00%     62.98% # Class of committed instruction. (Count)
system.cpu1.commitStats0.committedInstType::SimdSha256Hash2            0      0.00%     62.98% # Class of committed instruction. (Count)
system.cpu1.commitStats0.committedInstType::SimdShaSigma2            0      0.00%     62.98% # Class of committed instruction. (Count)
system.cpu1.commitStats0.committedInstType::SimdShaSigma3            0      0.00%     62.98% # Class of committed instruction. (Count)
system.cpu1.commitStats0.committedInstType::SimdPredAlu            0      0.00%     62.98% # Class of committed instruction. (Count)
system.cpu1.commitStats0.committedInstType::Matrix            0      0.00%     62.98% # Class of committed instruction. (Count)
system.cpu1.commitStats0.committedInstType::MatrixMov            0      0.00%     62.98% # Class of committed instruction. (Count)
system.cpu1.commitStats0.committedInstType::MatrixOP            0      0.00%     62.98% # Class of committed instruction. (Count)
system.cpu1.commitStats0.committedInstType::MemRead       540489      0.81%     63.79% # Class of committed instruction. (Count)
system.cpu1.commitStats0.committedInstType::MemWrite       527442      0.79%     64.59% # Class of committed instruction. (Count)
system.cpu1.commitStats0.committedInstType::FloatMemRead     15477356     23.29%     87.88% # Class of committed instruction. (Count)
system.cpu1.commitStats0.committedInstType::FloatMemWrite      8051902     12.12%    100.00% # Class of committed instruction. (Count)
system.cpu1.commitStats0.committedInstType::IprAccess            0      0.00%    100.00% # Class of committed instruction. (Count)
system.cpu1.commitStats0.committedInstType::InstPrefetch            0      0.00%    100.00% # Class of committed instruction. (Count)
system.cpu1.commitStats0.committedInstType::VectorUnitStrideLoad            0      0.00%    100.00% # Class of committed instruction. (Count)
system.cpu1.commitStats0.committedInstType::VectorUnitStrideStore            0      0.00%    100.00% # Class of committed instruction. (Count)
system.cpu1.commitStats0.committedInstType::VectorUnitStrideMaskLoad            0      0.00%    100.00% # Class of committed instruction. (Count)
system.cpu1.commitStats0.committedInstType::VectorUnitStrideMaskStore            0      0.00%    100.00% # Class of committed instruction. (Count)
system.cpu1.commitStats0.committedInstType::VectorStridedLoad            0      0.00%    100.00% # Class of committed instruction. (Count)
system.cpu1.commitStats0.committedInstType::VectorStridedStore            0      0.00%    100.00% # Class of committed instruction. (Count)
system.cpu1.commitStats0.committedInstType::VectorIndexedLoad            0      0.00%    100.00% # Class of committed instruction. (Count)
system.cpu1.commitStats0.committedInstType::VectorIndexedStore            0      0.00%    100.00% # Class of committed instruction. (Count)
system.cpu1.commitStats0.committedInstType::VectorUnitStrideFaultOnlyFirstLoad            0      0.00%    100.00% # Class of committed instruction. (Count)
system.cpu1.commitStats0.committedInstType::VectorWholeRegisterLoad            0      0.00%    100.00% # Class of committed instruction. (Count)
system.cpu1.commitStats0.committedInstType::VectorWholeRegisterStore            0      0.00%    100.00% # Class of committed instruction. (Count)
system.cpu1.commitStats0.committedInstType::VectorIntegerArith            0      0.00%    100.00% # Class of committed instruction. (Count)
system.cpu1.commitStats0.committedInstType::VectorFloatArith            0      0.00%    100.00% # Class of committed instruction. (Count)
system.cpu1.commitStats0.committedInstType::VectorFloatConvert            0      0.00%    100.00% # Class of committed instruction. (Count)
system.cpu1.commitStats0.committedInstType::VectorIntegerReduce            0      0.00%    100.00% # Class of committed instruction. (Count)
system.cpu1.commitStats0.committedInstType::VectorFloatReduce            0      0.00%    100.00% # Class of committed instruction. (Count)
system.cpu1.commitStats0.committedInstType::VectorMisc            0      0.00%    100.00% # Class of committed instruction. (Count)
system.cpu1.commitStats0.committedInstType::VectorIntegerExtension            0      0.00%    100.00% # Class of committed instruction. (Count)
system.cpu1.commitStats0.committedInstType::VectorConfig            0      0.00%    100.00% # Class of committed instruction. (Count)
system.cpu1.commitStats0.committedInstType::total     66444793                       # Class of committed instruction. (Count)
system.cpu1.commitStats0.committedControl::IsControl      8828886                       # Class of control type instructions committed (Count)
system.cpu1.commitStats0.committedControl::IsDirectControl      8720520                       # Class of control type instructions committed (Count)
system.cpu1.commitStats0.committedControl::IsIndirectControl       108366                       # Class of control type instructions committed (Count)
system.cpu1.commitStats0.committedControl::IsCondControl      8605485                       # Class of control type instructions committed (Count)
system.cpu1.commitStats0.committedControl::IsUncondControl       223401                       # Class of control type instructions committed (Count)
system.cpu1.commitStats0.committedControl::IsCall       108359                       # Class of control type instructions committed (Count)
system.cpu1.commitStats0.committedControl::IsReturn       108358                       # Class of control type instructions committed (Count)
system.cpu1.exec_context.thread_0.numMatAluAccesses            0                       # Number of matrix alu accesses (Count)
system.cpu1.exec_context.thread_0.numCallsReturns       216717                       # Number of times a function call or return occured (Count)
system.cpu1.exec_context.thread_0.numMatInsts            0                       # Number of matrix instructions (Count)
system.cpu1.exec_context.thread_0.numIdleCycles 14704665.675647                       # Number of idle cycles (Cycle)
system.cpu1.exec_context.thread_0.numBusyCycles 232291634.324353                       # Number of busy cycles (Cycle)
system.cpu1.exec_context.thread_0.notIdleFraction     0.940466                       # Percentage of non-idle cycles (Ratio)
system.cpu1.exec_context.thread_0.idleFraction     0.059534                       # Percentage of idle cycles (Ratio)
system.cpu1.executeStats0.numInsts                  0                       # Number of executed instructions (Count)
system.cpu1.executeStats0.numNop                    0                       # Number of nop insts executed (Count)
system.cpu1.executeStats0.numBranches               0                       # Number of branches executed (Count)
system.cpu1.executeStats0.numLoadInsts              0                       # Number of load instructions executed (Count)
system.cpu1.executeStats0.numStoreInsts      24597189                       # Number of stores executed (Count)
system.cpu1.executeStats0.instRate                  0                       # Inst execution rate ((Count/Cycle))
system.cpu1.executeStats0.numFpAluAccesses     31702137                       # Number of float alu accesses (Count)
system.cpu1.executeStats0.numFpRegReads      31500686                       # Number of times the floating registers were read (Count)
system.cpu1.executeStats0.numFpRegWrites     23226056                       # Number of times the floating registers were written (Count)
system.cpu1.executeStats0.numIntAluAccesses     58689495                       # Number of integer alu accesses (Count)
system.cpu1.executeStats0.numIntRegReads     67527408                       # Number of times the integer registers were read (Count)
system.cpu1.executeStats0.numIntRegWrites     25918832                       # Number of times the integer registers were written (Count)
system.cpu1.executeStats0.numMemRefs         24597189                       # Number of memory refs (Count)
system.cpu1.executeStats0.numMiscRegReads     47298555                       # Number of times the Misc registers were read (Count)
system.cpu1.executeStats0.numMiscRegWrites     31823114                       # Number of times the Misc registers were written (Count)
system.cpu1.executeStats0.numVecAluAccesses            0                       # Number of vector alu accesses (Count)
system.cpu1.executeStats0.numDiscardedOps            0                       # Number of ops (including micro ops) which were discarded before commit (Count)
system.cpu1.fetchStats0.numInsts             66444769                       # Number of instructions fetched (thread level) (Count)
system.cpu1.fetchStats0.numOps               66444793                       # Number of ops (including micro ops) fetched (thread level) (Count)
system.cpu1.fetchStats0.fetchRate            0.269011                       # Number of inst fetches per cycle ((Count/Cycle))
system.cpu1.fetchStats0.numBranches           8828886                       # Number of branches fetched (Count)
system.cpu1.fetchStats0.branchRate           0.035745                       # Number of branch fetches per cycle (Ratio)
system.cpu1.fetchStats0.numFetchSuspends            0                       # Number of times Execute suspended instruction fetching (Count)
system.cpu1.mmu.dtb.readHits                        0                       # read hits (Count)
system.cpu1.mmu.dtb.readMisses                      0                       # read misses (Count)
system.cpu1.mmu.dtb.readAccesses                    0                       # read accesses (Count)
system.cpu1.mmu.dtb.writeHits                       0                       # write hits (Count)
system.cpu1.mmu.dtb.writeMisses                     0                       # write misses (Count)
system.cpu1.mmu.dtb.writeAccesses                   0                       # write accesses (Count)
system.cpu1.mmu.dtb.hits                            0                       # Total TLB (read and write) hits (Count)
system.cpu1.mmu.dtb.misses                          0                       # Total TLB (read and write) misses (Count)
system.cpu1.mmu.dtb.accesses                        0                       # Total TLB (read and write) accesses (Count)
system.cpu1.mmu.dtb.walker.power_state.pwrStateResidencyTicks::UNDEFINED 123643943500                       # Cumulative time (in ticks) in various power states (Tick)
system.cpu1.mmu.itb.readHits                        0                       # read hits (Count)
system.cpu1.mmu.itb.readMisses                      0                       # read misses (Count)
system.cpu1.mmu.itb.readAccesses                    0                       # read accesses (Count)
system.cpu1.mmu.itb.writeHits                       0                       # write hits (Count)
system.cpu1.mmu.itb.writeMisses                     0                       # write misses (Count)
system.cpu1.mmu.itb.writeAccesses                   0                       # write accesses (Count)
system.cpu1.mmu.itb.hits                            0                       # Total TLB (read and write) hits (Count)
system.cpu1.mmu.itb.misses                          0                       # Total TLB (read and write) misses (Count)
system.cpu1.mmu.itb.accesses                        0                       # Total TLB (read and write) accesses (Count)
system.cpu1.mmu.itb.walker.power_state.pwrStateResidencyTicks::UNDEFINED 123643943500                       # Cumulative time (in ticks) in various power states (Tick)
system.cpu1.power_state.pwrStateResidencyTicks::ON 123643943500                       # Cumulative time (in ticks) in various power states (Tick)
system.cpu1.thread_0.numInsts                       0                       # Number of Instructions committed (Count)
system.cpu1.thread_0.numOps                         0                       # Number of Ops committed (Count)
system.cpu1.thread_0.numMemRefs                     0                       # Number of Memory References (Count)
system.cpu10.numCycles                              0                       # Number of cpu cycles simulated (Cycle)
system.cpu10.cpi                                  nan                       # CPI: cycles per instruction (core level) ((Cycle/Count))
system.cpu10.ipc                                  nan                       # IPC: instructions per cycle (core level) ((Count/Cycle))
system.cpu10.numWorkItemsStarted                    0                       # Number of work items this cpu started (Count)
system.cpu10.numWorkItemsCompleted                  0                       # Number of work items this cpu completed (Count)
system.cpu10.commitStats0.numOps                    0                       # Number of ops (including micro ops) committed (thread level) (Count)
system.cpu10.commitStats0.numInstsNotNOP            0                       # Number of instructions committed excluding NOPs or prefetches (Count)
system.cpu10.commitStats0.numOpsNotNOP              0                       # Number of Ops (including micro ops) Simulated (Count)
system.cpu10.commitStats0.cpi                     nan                       # CPI: cycles per instruction (thread level) ((Cycle/Count))
system.cpu10.commitStats0.ipc                     nan                       # IPC: instructions per cycle (thread level) ((Count/Cycle))
system.cpu10.commitStats0.numMemRefs                0                       # Number of memory references committed (Count)
system.cpu10.commitStats0.numFpInsts                0                       # Number of float instructions (Count)
system.cpu10.commitStats0.numIntInsts               0                       # Number of integer instructions (Count)
system.cpu10.commitStats0.numLoadInsts              0                       # Number of load instructions (Count)
system.cpu10.commitStats0.numStoreInsts             0                       # Number of store instructions (Count)
system.cpu10.commitStats0.numVecInsts               0                       # Number of vector instructions (Count)
system.cpu10.commitStats0.committedInstType::No_OpClass            0                       # Class of committed instruction. (Count)
system.cpu10.commitStats0.committedInstType::IntAlu            0                       # Class of committed instruction. (Count)
system.cpu10.commitStats0.committedInstType::IntMult            0                       # Class of committed instruction. (Count)
system.cpu10.commitStats0.committedInstType::IntDiv            0                       # Class of committed instruction. (Count)
system.cpu10.commitStats0.committedInstType::FloatAdd            0                       # Class of committed instruction. (Count)
system.cpu10.commitStats0.committedInstType::FloatCmp            0                       # Class of committed instruction. (Count)
system.cpu10.commitStats0.committedInstType::FloatCvt            0                       # Class of committed instruction. (Count)
system.cpu10.commitStats0.committedInstType::FloatMult            0                       # Class of committed instruction. (Count)
system.cpu10.commitStats0.committedInstType::FloatMultAcc            0                       # Class of committed instruction. (Count)
system.cpu10.commitStats0.committedInstType::FloatDiv            0                       # Class of committed instruction. (Count)
system.cpu10.commitStats0.committedInstType::FloatMisc            0                       # Class of committed instruction. (Count)
system.cpu10.commitStats0.committedInstType::FloatSqrt            0                       # Class of committed instruction. (Count)
system.cpu10.commitStats0.committedInstType::SimdAdd            0                       # Class of committed instruction. (Count)
system.cpu10.commitStats0.committedInstType::SimdAddAcc            0                       # Class of committed instruction. (Count)
system.cpu10.commitStats0.committedInstType::SimdAlu            0                       # Class of committed instruction. (Count)
system.cpu10.commitStats0.committedInstType::SimdCmp            0                       # Class of committed instruction. (Count)
system.cpu10.commitStats0.committedInstType::SimdCvt            0                       # Class of committed instruction. (Count)
system.cpu10.commitStats0.committedInstType::SimdMisc            0                       # Class of committed instruction. (Count)
system.cpu10.commitStats0.committedInstType::SimdMult            0                       # Class of committed instruction. (Count)
system.cpu10.commitStats0.committedInstType::SimdMultAcc            0                       # Class of committed instruction. (Count)
system.cpu10.commitStats0.committedInstType::SimdMatMultAcc            0                       # Class of committed instruction. (Count)
system.cpu10.commitStats0.committedInstType::SimdShift            0                       # Class of committed instruction. (Count)
system.cpu10.commitStats0.committedInstType::SimdShiftAcc            0                       # Class of committed instruction. (Count)
system.cpu10.commitStats0.committedInstType::SimdDiv            0                       # Class of committed instruction. (Count)
system.cpu10.commitStats0.committedInstType::SimdSqrt            0                       # Class of committed instruction. (Count)
system.cpu10.commitStats0.committedInstType::SimdFloatAdd            0                       # Class of committed instruction. (Count)
system.cpu10.commitStats0.committedInstType::SimdFloatAlu            0                       # Class of committed instruction. (Count)
system.cpu10.commitStats0.committedInstType::SimdFloatCmp            0                       # Class of committed instruction. (Count)
system.cpu10.commitStats0.committedInstType::SimdFloatCvt            0                       # Class of committed instruction. (Count)
system.cpu10.commitStats0.committedInstType::SimdFloatDiv            0                       # Class of committed instruction. (Count)
system.cpu10.commitStats0.committedInstType::SimdFloatMisc            0                       # Class of committed instruction. (Count)
system.cpu10.commitStats0.committedInstType::SimdFloatMult            0                       # Class of committed instruction. (Count)
system.cpu10.commitStats0.committedInstType::SimdFloatMultAcc            0                       # Class of committed instruction. (Count)
system.cpu10.commitStats0.committedInstType::SimdFloatMatMultAcc            0                       # Class of committed instruction. (Count)
system.cpu10.commitStats0.committedInstType::SimdFloatSqrt            0                       # Class of committed instruction. (Count)
system.cpu10.commitStats0.committedInstType::SimdReduceAdd            0                       # Class of committed instruction. (Count)
system.cpu10.commitStats0.committedInstType::SimdReduceAlu            0                       # Class of committed instruction. (Count)
system.cpu10.commitStats0.committedInstType::SimdReduceCmp            0                       # Class of committed instruction. (Count)
system.cpu10.commitStats0.committedInstType::SimdFloatReduceAdd            0                       # Class of committed instruction. (Count)
system.cpu10.commitStats0.committedInstType::SimdFloatReduceCmp            0                       # Class of committed instruction. (Count)
system.cpu10.commitStats0.committedInstType::SimdAes            0                       # Class of committed instruction. (Count)
system.cpu10.commitStats0.committedInstType::SimdAesMix            0                       # Class of committed instruction. (Count)
system.cpu10.commitStats0.committedInstType::SimdSha1Hash            0                       # Class of committed instruction. (Count)
system.cpu10.commitStats0.committedInstType::SimdSha1Hash2            0                       # Class of committed instruction. (Count)
system.cpu10.commitStats0.committedInstType::SimdSha256Hash            0                       # Class of committed instruction. (Count)
system.cpu10.commitStats0.committedInstType::SimdSha256Hash2            0                       # Class of committed instruction. (Count)
system.cpu10.commitStats0.committedInstType::SimdShaSigma2            0                       # Class of committed instruction. (Count)
system.cpu10.commitStats0.committedInstType::SimdShaSigma3            0                       # Class of committed instruction. (Count)
system.cpu10.commitStats0.committedInstType::SimdPredAlu            0                       # Class of committed instruction. (Count)
system.cpu10.commitStats0.committedInstType::Matrix            0                       # Class of committed instruction. (Count)
system.cpu10.commitStats0.committedInstType::MatrixMov            0                       # Class of committed instruction. (Count)
system.cpu10.commitStats0.committedInstType::MatrixOP            0                       # Class of committed instruction. (Count)
system.cpu10.commitStats0.committedInstType::MemRead            0                       # Class of committed instruction. (Count)
system.cpu10.commitStats0.committedInstType::MemWrite            0                       # Class of committed instruction. (Count)
system.cpu10.commitStats0.committedInstType::FloatMemRead            0                       # Class of committed instruction. (Count)
system.cpu10.commitStats0.committedInstType::FloatMemWrite            0                       # Class of committed instruction. (Count)
system.cpu10.commitStats0.committedInstType::IprAccess            0                       # Class of committed instruction. (Count)
system.cpu10.commitStats0.committedInstType::InstPrefetch            0                       # Class of committed instruction. (Count)
system.cpu10.commitStats0.committedInstType::VectorUnitStrideLoad            0                       # Class of committed instruction. (Count)
system.cpu10.commitStats0.committedInstType::VectorUnitStrideStore            0                       # Class of committed instruction. (Count)
system.cpu10.commitStats0.committedInstType::VectorUnitStrideMaskLoad            0                       # Class of committed instruction. (Count)
system.cpu10.commitStats0.committedInstType::VectorUnitStrideMaskStore            0                       # Class of committed instruction. (Count)
system.cpu10.commitStats0.committedInstType::VectorStridedLoad            0                       # Class of committed instruction. (Count)
system.cpu10.commitStats0.committedInstType::VectorStridedStore            0                       # Class of committed instruction. (Count)
system.cpu10.commitStats0.committedInstType::VectorIndexedLoad            0                       # Class of committed instruction. (Count)
system.cpu10.commitStats0.committedInstType::VectorIndexedStore            0                       # Class of committed instruction. (Count)
system.cpu10.commitStats0.committedInstType::VectorUnitStrideFaultOnlyFirstLoad            0                       # Class of committed instruction. (Count)
system.cpu10.commitStats0.committedInstType::VectorWholeRegisterLoad            0                       # Class of committed instruction. (Count)
system.cpu10.commitStats0.committedInstType::VectorWholeRegisterStore            0                       # Class of committed instruction. (Count)
system.cpu10.commitStats0.committedInstType::VectorIntegerArith            0                       # Class of committed instruction. (Count)
system.cpu10.commitStats0.committedInstType::VectorFloatArith            0                       # Class of committed instruction. (Count)
system.cpu10.commitStats0.committedInstType::VectorFloatConvert            0                       # Class of committed instruction. (Count)
system.cpu10.commitStats0.committedInstType::VectorIntegerReduce            0                       # Class of committed instruction. (Count)
system.cpu10.commitStats0.committedInstType::VectorFloatReduce            0                       # Class of committed instruction. (Count)
system.cpu10.commitStats0.committedInstType::VectorMisc            0                       # Class of committed instruction. (Count)
system.cpu10.commitStats0.committedInstType::VectorIntegerExtension            0                       # Class of committed instruction. (Count)
system.cpu10.commitStats0.committedInstType::VectorConfig            0                       # Class of committed instruction. (Count)
system.cpu10.commitStats0.committedInstType::total            0                       # Class of committed instruction. (Count)
system.cpu10.exec_context.thread_0.numMatAluAccesses            0                       # Number of matrix alu accesses (Count)
system.cpu10.exec_context.thread_0.numCallsReturns            0                       # Number of times a function call or return occured (Count)
system.cpu10.exec_context.thread_0.numMatInsts            0                       # Number of matrix instructions (Count)
system.cpu10.exec_context.thread_0.numIdleCycles            0                       # Number of idle cycles (Cycle)
system.cpu10.exec_context.thread_0.numBusyCycles            0                       # Number of busy cycles (Cycle)
system.cpu10.exec_context.thread_0.notIdleFraction            0                       # Percentage of non-idle cycles (Ratio)
system.cpu10.exec_context.thread_0.idleFraction            1                       # Percentage of idle cycles (Ratio)
system.cpu10.executeStats0.numInsts                 0                       # Number of executed instructions (Count)
system.cpu10.executeStats0.numNop                   0                       # Number of nop insts executed (Count)
system.cpu10.executeStats0.numBranches              0                       # Number of branches executed (Count)
system.cpu10.executeStats0.numLoadInsts             0                       # Number of load instructions executed (Count)
system.cpu10.executeStats0.numStoreInsts            0                       # Number of stores executed (Count)
system.cpu10.executeStats0.instRate               nan                       # Inst execution rate ((Count/Cycle))
system.cpu10.executeStats0.numFpRegWrites            0                       # Number of times the floating registers were written (Count)
system.cpu10.executeStats0.numMemRefs               0                       # Number of memory refs (Count)
system.cpu10.executeStats0.numVecAluAccesses            0                       # Number of vector alu accesses (Count)
system.cpu10.executeStats0.numDiscardedOps            0                       # Number of ops (including micro ops) which were discarded before commit (Count)
system.cpu10.fetchStats0.numInsts                   0                       # Number of instructions fetched (thread level) (Count)
system.cpu10.fetchStats0.numOps                     0                       # Number of ops (including micro ops) fetched (thread level) (Count)
system.cpu10.fetchStats0.fetchRate                nan                       # Number of inst fetches per cycle ((Count/Cycle))
system.cpu10.fetchStats0.branchRate               nan                       # Number of branch fetches per cycle (Ratio)
system.cpu10.fetchStats0.numFetchSuspends            0                       # Number of times Execute suspended instruction fetching (Count)
system.cpu10.mmu.dtb.readHits                       0                       # read hits (Count)
system.cpu10.mmu.dtb.readMisses                     0                       # read misses (Count)
system.cpu10.mmu.dtb.readAccesses                   0                       # read accesses (Count)
system.cpu10.mmu.dtb.writeHits                      0                       # write hits (Count)
system.cpu10.mmu.dtb.writeMisses                    0                       # write misses (Count)
system.cpu10.mmu.dtb.writeAccesses                  0                       # write accesses (Count)
system.cpu10.mmu.dtb.hits                           0                       # Total TLB (read and write) hits (Count)
system.cpu10.mmu.dtb.misses                         0                       # Total TLB (read and write) misses (Count)
system.cpu10.mmu.dtb.accesses                       0                       # Total TLB (read and write) accesses (Count)
system.cpu10.mmu.dtb.walker.power_state.pwrStateResidencyTicks::UNDEFINED 123643943500                       # Cumulative time (in ticks) in various power states (Tick)
system.cpu10.mmu.itb.readHits                       0                       # read hits (Count)
system.cpu10.mmu.itb.readMisses                     0                       # read misses (Count)
system.cpu10.mmu.itb.readAccesses                   0                       # read accesses (Count)
system.cpu10.mmu.itb.writeHits                      0                       # write hits (Count)
system.cpu10.mmu.itb.writeMisses                    0                       # write misses (Count)
system.cpu10.mmu.itb.writeAccesses                  0                       # write accesses (Count)
system.cpu10.mmu.itb.hits                           0                       # Total TLB (read and write) hits (Count)
system.cpu10.mmu.itb.misses                         0                       # Total TLB (read and write) misses (Count)
system.cpu10.mmu.itb.accesses                       0                       # Total TLB (read and write) accesses (Count)
system.cpu10.mmu.itb.walker.power_state.pwrStateResidencyTicks::UNDEFINED 123643943500                       # Cumulative time (in ticks) in various power states (Tick)
system.cpu10.power_state.pwrStateResidencyTicks::ON 123643943500                       # Cumulative time (in ticks) in various power states (Tick)
system.cpu10.thread_0.numInsts                      0                       # Number of Instructions committed (Count)
system.cpu10.thread_0.numOps                        0                       # Number of Ops committed (Count)
system.cpu10.thread_0.numMemRefs                    0                       # Number of Memory References (Count)
system.cpu11.numCycles                              0                       # Number of cpu cycles simulated (Cycle)
system.cpu11.cpi                                  nan                       # CPI: cycles per instruction (core level) ((Cycle/Count))
system.cpu11.ipc                                  nan                       # IPC: instructions per cycle (core level) ((Count/Cycle))
system.cpu11.numWorkItemsStarted                    0                       # Number of work items this cpu started (Count)
system.cpu11.numWorkItemsCompleted                  0                       # Number of work items this cpu completed (Count)
system.cpu11.commitStats0.numOps                    0                       # Number of ops (including micro ops) committed (thread level) (Count)
system.cpu11.commitStats0.numInstsNotNOP            0                       # Number of instructions committed excluding NOPs or prefetches (Count)
system.cpu11.commitStats0.numOpsNotNOP              0                       # Number of Ops (including micro ops) Simulated (Count)
system.cpu11.commitStats0.cpi                     nan                       # CPI: cycles per instruction (thread level) ((Cycle/Count))
system.cpu11.commitStats0.ipc                     nan                       # IPC: instructions per cycle (thread level) ((Count/Cycle))
system.cpu11.commitStats0.numMemRefs                0                       # Number of memory references committed (Count)
system.cpu11.commitStats0.numFpInsts                0                       # Number of float instructions (Count)
system.cpu11.commitStats0.numIntInsts               0                       # Number of integer instructions (Count)
system.cpu11.commitStats0.numLoadInsts              0                       # Number of load instructions (Count)
system.cpu11.commitStats0.numStoreInsts             0                       # Number of store instructions (Count)
system.cpu11.commitStats0.numVecInsts               0                       # Number of vector instructions (Count)
system.cpu11.commitStats0.committedInstType::No_OpClass            0                       # Class of committed instruction. (Count)
system.cpu11.commitStats0.committedInstType::IntAlu            0                       # Class of committed instruction. (Count)
system.cpu11.commitStats0.committedInstType::IntMult            0                       # Class of committed instruction. (Count)
system.cpu11.commitStats0.committedInstType::IntDiv            0                       # Class of committed instruction. (Count)
system.cpu11.commitStats0.committedInstType::FloatAdd            0                       # Class of committed instruction. (Count)
system.cpu11.commitStats0.committedInstType::FloatCmp            0                       # Class of committed instruction. (Count)
system.cpu11.commitStats0.committedInstType::FloatCvt            0                       # Class of committed instruction. (Count)
system.cpu11.commitStats0.committedInstType::FloatMult            0                       # Class of committed instruction. (Count)
system.cpu11.commitStats0.committedInstType::FloatMultAcc            0                       # Class of committed instruction. (Count)
system.cpu11.commitStats0.committedInstType::FloatDiv            0                       # Class of committed instruction. (Count)
system.cpu11.commitStats0.committedInstType::FloatMisc            0                       # Class of committed instruction. (Count)
system.cpu11.commitStats0.committedInstType::FloatSqrt            0                       # Class of committed instruction. (Count)
system.cpu11.commitStats0.committedInstType::SimdAdd            0                       # Class of committed instruction. (Count)
system.cpu11.commitStats0.committedInstType::SimdAddAcc            0                       # Class of committed instruction. (Count)
system.cpu11.commitStats0.committedInstType::SimdAlu            0                       # Class of committed instruction. (Count)
system.cpu11.commitStats0.committedInstType::SimdCmp            0                       # Class of committed instruction. (Count)
system.cpu11.commitStats0.committedInstType::SimdCvt            0                       # Class of committed instruction. (Count)
system.cpu11.commitStats0.committedInstType::SimdMisc            0                       # Class of committed instruction. (Count)
system.cpu11.commitStats0.committedInstType::SimdMult            0                       # Class of committed instruction. (Count)
system.cpu11.commitStats0.committedInstType::SimdMultAcc            0                       # Class of committed instruction. (Count)
system.cpu11.commitStats0.committedInstType::SimdMatMultAcc            0                       # Class of committed instruction. (Count)
system.cpu11.commitStats0.committedInstType::SimdShift            0                       # Class of committed instruction. (Count)
system.cpu11.commitStats0.committedInstType::SimdShiftAcc            0                       # Class of committed instruction. (Count)
system.cpu11.commitStats0.committedInstType::SimdDiv            0                       # Class of committed instruction. (Count)
system.cpu11.commitStats0.committedInstType::SimdSqrt            0                       # Class of committed instruction. (Count)
system.cpu11.commitStats0.committedInstType::SimdFloatAdd            0                       # Class of committed instruction. (Count)
system.cpu11.commitStats0.committedInstType::SimdFloatAlu            0                       # Class of committed instruction. (Count)
system.cpu11.commitStats0.committedInstType::SimdFloatCmp            0                       # Class of committed instruction. (Count)
system.cpu11.commitStats0.committedInstType::SimdFloatCvt            0                       # Class of committed instruction. (Count)
system.cpu11.commitStats0.committedInstType::SimdFloatDiv            0                       # Class of committed instruction. (Count)
system.cpu11.commitStats0.committedInstType::SimdFloatMisc            0                       # Class of committed instruction. (Count)
system.cpu11.commitStats0.committedInstType::SimdFloatMult            0                       # Class of committed instruction. (Count)
system.cpu11.commitStats0.committedInstType::SimdFloatMultAcc            0                       # Class of committed instruction. (Count)
system.cpu11.commitStats0.committedInstType::SimdFloatMatMultAcc            0                       # Class of committed instruction. (Count)
system.cpu11.commitStats0.committedInstType::SimdFloatSqrt            0                       # Class of committed instruction. (Count)
system.cpu11.commitStats0.committedInstType::SimdReduceAdd            0                       # Class of committed instruction. (Count)
system.cpu11.commitStats0.committedInstType::SimdReduceAlu            0                       # Class of committed instruction. (Count)
system.cpu11.commitStats0.committedInstType::SimdReduceCmp            0                       # Class of committed instruction. (Count)
system.cpu11.commitStats0.committedInstType::SimdFloatReduceAdd            0                       # Class of committed instruction. (Count)
system.cpu11.commitStats0.committedInstType::SimdFloatReduceCmp            0                       # Class of committed instruction. (Count)
system.cpu11.commitStats0.committedInstType::SimdAes            0                       # Class of committed instruction. (Count)
system.cpu11.commitStats0.committedInstType::SimdAesMix            0                       # Class of committed instruction. (Count)
system.cpu11.commitStats0.committedInstType::SimdSha1Hash            0                       # Class of committed instruction. (Count)
system.cpu11.commitStats0.committedInstType::SimdSha1Hash2            0                       # Class of committed instruction. (Count)
system.cpu11.commitStats0.committedInstType::SimdSha256Hash            0                       # Class of committed instruction. (Count)
system.cpu11.commitStats0.committedInstType::SimdSha256Hash2            0                       # Class of committed instruction. (Count)
system.cpu11.commitStats0.committedInstType::SimdShaSigma2            0                       # Class of committed instruction. (Count)
system.cpu11.commitStats0.committedInstType::SimdShaSigma3            0                       # Class of committed instruction. (Count)
system.cpu11.commitStats0.committedInstType::SimdPredAlu            0                       # Class of committed instruction. (Count)
system.cpu11.commitStats0.committedInstType::Matrix            0                       # Class of committed instruction. (Count)
system.cpu11.commitStats0.committedInstType::MatrixMov            0                       # Class of committed instruction. (Count)
system.cpu11.commitStats0.committedInstType::MatrixOP            0                       # Class of committed instruction. (Count)
system.cpu11.commitStats0.committedInstType::MemRead            0                       # Class of committed instruction. (Count)
system.cpu11.commitStats0.committedInstType::MemWrite            0                       # Class of committed instruction. (Count)
system.cpu11.commitStats0.committedInstType::FloatMemRead            0                       # Class of committed instruction. (Count)
system.cpu11.commitStats0.committedInstType::FloatMemWrite            0                       # Class of committed instruction. (Count)
system.cpu11.commitStats0.committedInstType::IprAccess            0                       # Class of committed instruction. (Count)
system.cpu11.commitStats0.committedInstType::InstPrefetch            0                       # Class of committed instruction. (Count)
system.cpu11.commitStats0.committedInstType::VectorUnitStrideLoad            0                       # Class of committed instruction. (Count)
system.cpu11.commitStats0.committedInstType::VectorUnitStrideStore            0                       # Class of committed instruction. (Count)
system.cpu11.commitStats0.committedInstType::VectorUnitStrideMaskLoad            0                       # Class of committed instruction. (Count)
system.cpu11.commitStats0.committedInstType::VectorUnitStrideMaskStore            0                       # Class of committed instruction. (Count)
system.cpu11.commitStats0.committedInstType::VectorStridedLoad            0                       # Class of committed instruction. (Count)
system.cpu11.commitStats0.committedInstType::VectorStridedStore            0                       # Class of committed instruction. (Count)
system.cpu11.commitStats0.committedInstType::VectorIndexedLoad            0                       # Class of committed instruction. (Count)
system.cpu11.commitStats0.committedInstType::VectorIndexedStore            0                       # Class of committed instruction. (Count)
system.cpu11.commitStats0.committedInstType::VectorUnitStrideFaultOnlyFirstLoad            0                       # Class of committed instruction. (Count)
system.cpu11.commitStats0.committedInstType::VectorWholeRegisterLoad            0                       # Class of committed instruction. (Count)
system.cpu11.commitStats0.committedInstType::VectorWholeRegisterStore            0                       # Class of committed instruction. (Count)
system.cpu11.commitStats0.committedInstType::VectorIntegerArith            0                       # Class of committed instruction. (Count)
system.cpu11.commitStats0.committedInstType::VectorFloatArith            0                       # Class of committed instruction. (Count)
system.cpu11.commitStats0.committedInstType::VectorFloatConvert            0                       # Class of committed instruction. (Count)
system.cpu11.commitStats0.committedInstType::VectorIntegerReduce            0                       # Class of committed instruction. (Count)
system.cpu11.commitStats0.committedInstType::VectorFloatReduce            0                       # Class of committed instruction. (Count)
system.cpu11.commitStats0.committedInstType::VectorMisc            0                       # Class of committed instruction. (Count)
system.cpu11.commitStats0.committedInstType::VectorIntegerExtension            0                       # Class of committed instruction. (Count)
system.cpu11.commitStats0.committedInstType::VectorConfig            0                       # Class of committed instruction. (Count)
system.cpu11.commitStats0.committedInstType::total            0                       # Class of committed instruction. (Count)
system.cpu11.exec_context.thread_0.numMatAluAccesses            0                       # Number of matrix alu accesses (Count)
system.cpu11.exec_context.thread_0.numCallsReturns            0                       # Number of times a function call or return occured (Count)
system.cpu11.exec_context.thread_0.numMatInsts            0                       # Number of matrix instructions (Count)
system.cpu11.exec_context.thread_0.numIdleCycles            0                       # Number of idle cycles (Cycle)
system.cpu11.exec_context.thread_0.numBusyCycles            0                       # Number of busy cycles (Cycle)
system.cpu11.exec_context.thread_0.notIdleFraction            0                       # Percentage of non-idle cycles (Ratio)
system.cpu11.exec_context.thread_0.idleFraction            1                       # Percentage of idle cycles (Ratio)
system.cpu11.executeStats0.numInsts                 0                       # Number of executed instructions (Count)
system.cpu11.executeStats0.numNop                   0                       # Number of nop insts executed (Count)
system.cpu11.executeStats0.numBranches              0                       # Number of branches executed (Count)
system.cpu11.executeStats0.numLoadInsts             0                       # Number of load instructions executed (Count)
system.cpu11.executeStats0.numStoreInsts            0                       # Number of stores executed (Count)
system.cpu11.executeStats0.instRate               nan                       # Inst execution rate ((Count/Cycle))
system.cpu11.executeStats0.numFpRegWrites            0                       # Number of times the floating registers were written (Count)
system.cpu11.executeStats0.numMemRefs               0                       # Number of memory refs (Count)
system.cpu11.executeStats0.numVecAluAccesses            0                       # Number of vector alu accesses (Count)
system.cpu11.executeStats0.numDiscardedOps            0                       # Number of ops (including micro ops) which were discarded before commit (Count)
system.cpu11.fetchStats0.numInsts                   0                       # Number of instructions fetched (thread level) (Count)
system.cpu11.fetchStats0.numOps                     0                       # Number of ops (including micro ops) fetched (thread level) (Count)
system.cpu11.fetchStats0.fetchRate                nan                       # Number of inst fetches per cycle ((Count/Cycle))
system.cpu11.fetchStats0.branchRate               nan                       # Number of branch fetches per cycle (Ratio)
system.cpu11.fetchStats0.numFetchSuspends            0                       # Number of times Execute suspended instruction fetching (Count)
system.cpu11.mmu.dtb.readHits                       0                       # read hits (Count)
system.cpu11.mmu.dtb.readMisses                     0                       # read misses (Count)
system.cpu11.mmu.dtb.readAccesses                   0                       # read accesses (Count)
system.cpu11.mmu.dtb.writeHits                      0                       # write hits (Count)
system.cpu11.mmu.dtb.writeMisses                    0                       # write misses (Count)
system.cpu11.mmu.dtb.writeAccesses                  0                       # write accesses (Count)
system.cpu11.mmu.dtb.hits                           0                       # Total TLB (read and write) hits (Count)
system.cpu11.mmu.dtb.misses                         0                       # Total TLB (read and write) misses (Count)
system.cpu11.mmu.dtb.accesses                       0                       # Total TLB (read and write) accesses (Count)
system.cpu11.mmu.dtb.walker.power_state.pwrStateResidencyTicks::UNDEFINED 123643943500                       # Cumulative time (in ticks) in various power states (Tick)
system.cpu11.mmu.itb.readHits                       0                       # read hits (Count)
system.cpu11.mmu.itb.readMisses                     0                       # read misses (Count)
system.cpu11.mmu.itb.readAccesses                   0                       # read accesses (Count)
system.cpu11.mmu.itb.writeHits                      0                       # write hits (Count)
system.cpu11.mmu.itb.writeMisses                    0                       # write misses (Count)
system.cpu11.mmu.itb.writeAccesses                  0                       # write accesses (Count)
system.cpu11.mmu.itb.hits                           0                       # Total TLB (read and write) hits (Count)
system.cpu11.mmu.itb.misses                         0                       # Total TLB (read and write) misses (Count)
system.cpu11.mmu.itb.accesses                       0                       # Total TLB (read and write) accesses (Count)
system.cpu11.mmu.itb.walker.power_state.pwrStateResidencyTicks::UNDEFINED 123643943500                       # Cumulative time (in ticks) in various power states (Tick)
system.cpu11.power_state.pwrStateResidencyTicks::ON 123643943500                       # Cumulative time (in ticks) in various power states (Tick)
system.cpu11.thread_0.numInsts                      0                       # Number of Instructions committed (Count)
system.cpu11.thread_0.numOps                        0                       # Number of Ops committed (Count)
system.cpu11.thread_0.numMemRefs                    0                       # Number of Memory References (Count)
system.cpu12.numCycles                              0                       # Number of cpu cycles simulated (Cycle)
system.cpu12.cpi                                  nan                       # CPI: cycles per instruction (core level) ((Cycle/Count))
system.cpu12.ipc                                  nan                       # IPC: instructions per cycle (core level) ((Count/Cycle))
[...]
system.ruby.network.data_traffic_distribution.n7.n27            0                       (Unspecified)
system.ruby.network.data_traffic_distribution.n7.n28            0                       (Unspecified)
system.ruby.network.data_traffic_distribution.n7.n29            0                       (Unspecified)
system.ruby.network.data_traffic_distribution.n7.n3            0                       (Unspecified)
system.ruby.network.data_traffic_distribution.n7.n30            0                       (Unspecified)
system.ruby.network.data_traffic_distribution.n7.n31            0                       (Unspecified)
system.ruby.network.data_traffic_distribution.n7.n32            0                       (Unspecified)
system.ruby.network.data_traffic_distribution.n7.n4            0                       (Unspecified)
system.ruby.network.data_traffic_distribution.n7.n5            0                       (Unspecified)
system.ruby.network.data_traffic_distribution.n7.n6            0                       (Unspecified)
system.ruby.network.data_traffic_distribution.n7.n7            0                       (Unspecified)
system.ruby.network.data_traffic_distribution.n7.n8            0                       (Unspecified)
system.ruby.network.data_traffic_distribution.n7.n9            0                       (Unspecified)
system.ruby.network.data_traffic_distribution.n8.n0            0                       (Unspecified)
system.ruby.network.data_traffic_distribution.n8.n1            0                       (Unspecified)
system.ruby.network.data_traffic_distribution.n8.n10            0                       (Unspecified)
system.ruby.network.data_traffic_distribution.n8.n11            0                       (Unspecified)
system.ruby.network.data_traffic_distribution.n8.n12            0                       (Unspecified)
system.ruby.network.data_traffic_distribution.n8.n13            0                       (Unspecified)
system.ruby.network.data_traffic_distribution.n8.n14            0                       (Unspecified)
system.ruby.network.data_traffic_distribution.n8.n15            0                       (Unspecified)
system.ruby.network.data_traffic_distribution.n8.n16            0                       (Unspecified)
system.ruby.network.data_traffic_distribution.n8.n17            0                       (Unspecified)
system.ruby.network.data_traffic_distribution.n8.n18            0                       (Unspecified)
system.ruby.network.data_traffic_distribution.n8.n19            0                       (Unspecified)
system.ruby.network.data_traffic_distribution.n8.n2            0                       (Unspecified)
system.ruby.network.data_traffic_distribution.n8.n20            0                       (Unspecified)
system.ruby.network.data_traffic_distribution.n8.n21            0                       (Unspecified)
system.ruby.network.data_traffic_distribution.n8.n22            0                       (Unspecified)
system.ruby.network.data_traffic_distribution.n8.n23            0                       (Unspecified)
system.ruby.network.data_traffic_distribution.n8.n24            0                       (Unspecified)
system.ruby.network.data_traffic_distribution.n8.n25            0                       (Unspecified)
system.ruby.network.data_traffic_distribution.n8.n26            0                       (Unspecified)
system.ruby.network.data_traffic_distribution.n8.n27            0                       (Unspecified)
system.ruby.network.data_traffic_distribution.n8.n28            0                       (Unspecified)
system.ruby.network.data_traffic_distribution.n8.n29            0                       (Unspecified)
system.ruby.network.data_traffic_distribution.n8.n3            0                       (Unspecified)
system.ruby.network.data_traffic_distribution.n8.n30            0                       (Unspecified)
system.ruby.network.data_traffic_distribution.n8.n31            0                       (Unspecified)
system.ruby.network.data_traffic_distribution.n8.n32            0                       (Unspecified)
system.ruby.network.data_traffic_distribution.n8.n4            0                       (Unspecified)
system.ruby.network.data_traffic_distribution.n8.n5            0                       (Unspecified)
system.ruby.network.data_traffic_distribution.n8.n6            0                       (Unspecified)
system.ruby.network.data_traffic_distribution.n8.n7            0                       (Unspecified)
system.ruby.network.data_traffic_distribution.n8.n8            0                       (Unspecified)
system.ruby.network.data_traffic_distribution.n8.n9            0                       (Unspecified)
system.ruby.network.data_traffic_distribution.n9.n0            0                       (Unspecified)
system.ruby.network.data_traffic_distribution.n9.n1            0                       (Unspecified)
system.ruby.network.data_traffic_distribution.n9.n10            0                       (Unspecified)
system.ruby.network.data_traffic_distribution.n9.n11            0                       (Unspecified)
system.ruby.network.data_traffic_distribution.n9.n12            0                       (Unspecified)
system.ruby.network.data_traffic_distribution.n9.n13            0                       (Unspecified)
system.ruby.network.data_traffic_distribution.n9.n14            0                       (Unspecified)
system.ruby.network.data_traffic_distribution.n9.n15            0                       (Unspecified)
system.ruby.network.data_traffic_distribution.n9.n16            0                       (Unspecified)
system.ruby.network.data_traffic_distribution.n9.n17            0                       (Unspecified)
system.ruby.network.data_traffic_distribution.n9.n18            0                       (Unspecified)
system.ruby.network.data_traffic_distribution.n9.n19            0                       (Unspecified)
system.ruby.network.data_traffic_distribution.n9.n2            0                       (Unspecified)
system.ruby.network.data_traffic_distribution.n9.n20            0                       (Unspecified)
system.ruby.network.data_traffic_distribution.n9.n21            0                       (Unspecified)
system.ruby.network.data_traffic_distribution.n9.n22            0                       (Unspecified)
system.ruby.network.data_traffic_distribution.n9.n23            0                       (Unspecified)
system.ruby.network.data_traffic_distribution.n9.n24            0                       (Unspecified)
system.ruby.network.data_traffic_distribution.n9.n25            0                       (Unspecified)
system.ruby.network.data_traffic_distribution.n9.n26            0                       (Unspecified)
system.ruby.network.data_traffic_distribution.n9.n27            0                       (Unspecified)
system.ruby.network.data_traffic_distribution.n9.n28            0                       (Unspecified)
system.ruby.network.data_traffic_distribution.n9.n29            0                       (Unspecified)
system.ruby.network.data_traffic_distribution.n9.n3            0                       (Unspecified)
system.ruby.network.data_traffic_distribution.n9.n30            0                       (Unspecified)
system.ruby.network.data_traffic_distribution.n9.n31            0                       (Unspecified)
system.ruby.network.data_traffic_distribution.n9.n32            0                       (Unspecified)
system.ruby.network.data_traffic_distribution.n9.n4            0                       (Unspecified)
system.ruby.network.data_traffic_distribution.n9.n5            0                       (Unspecified)
system.ruby.network.data_traffic_distribution.n9.n6            0                       (Unspecified)
system.ruby.network.data_traffic_distribution.n9.n7            0                       (Unspecified)
system.ruby.network.data_traffic_distribution.n9.n8            0                       (Unspecified)
system.ruby.network.data_traffic_distribution.n9.n9            0                       (Unspecified)
system.ruby.network.ext_in_link_utilization        97815                       (Unspecified)
system.ruby.network.ext_out_link_utilization        97815                       (Unspecified)
system.ruby.network.flit_network_latency |           0                       |           0                       |   404369000                       |    25711000                       |   210888000                       (Unspecified)
system.ruby.network.flit_queueing_latency |           0                       |           0                       |    48169500                       |     5075500                       |    29935000                       (Unspecified)
system.ruby.network.flits_injected       |           0      0.00%      0.00% |           0      0.00%      0.00% |       44624     45.62%     45.62% |        7346      7.51%     53.13% |       45845     46.87%    100.00% (Unspecified)
system.ruby.network.flits_injected::total        97815                       (Unspecified)
system.ruby.network.flits_received       |           0      0.00%      0.00% |           0      0.00%      0.00% |       44624     45.62%     45.62% |        7346      7.51%     53.13% |       45845     46.87%    100.00% (Unspecified)
system.ruby.network.flits_received::total        97815                       (Unspecified)
system.ruby.network.int_link_utilization       195630                       (Unspecified)
system.ruby.network.packet_network_latency |           0                       |           0                       |   198730000                       |    25711000                       |    55014000                       (Unspecified)
system.ruby.network.packet_queueing_latency |           0                       |           0                       |    19805500                       |     5075500                       |     5987000                       (Unspecified)
system.ruby.network.packets_injected     |           0      0.00%      0.00% |           0      0.00%      0.00% |       16260     49.61%     49.61% |        7346     22.41%     72.02% |        9169     27.98%    100.00% (Unspecified)
system.ruby.network.packets_injected::total        32775                       (Unspecified)
system.ruby.network.packets_received     |           0      0.00%      0.00% |           0      0.00%      0.00% |       16260     49.61%     49.61% |        7346     22.41%     72.02% |        9169     27.98%    100.00% (Unspecified)
system.ruby.network.packets_received::total        32775                       (Unspecified)
system.ruby.network.routers00.buffer_reads        22482                       (Unspecified)
system.ruby.network.routers00.buffer_writes        22482                       (Unspecified)
system.ruby.network.routers00.crossbar_activity        22482                       (Unspecified)
system.ruby.network.routers00.sw_input_arbiter_activity        22482                       (Unspecified)
system.ruby.network.routers00.sw_output_arbiter_activity        22482                       (Unspecified)
system.ruby.network.routers01.buffer_reads        76608                       (Unspecified)
system.ruby.network.routers01.buffer_writes        76608                       (Unspecified)
system.ruby.network.routers01.crossbar_activity        76608                       (Unspecified)
system.ruby.network.routers01.sw_input_arbiter_activity        76608                       (Unspecified)
system.ruby.network.routers01.sw_output_arbiter_activity        76608                       (Unspecified)
system.ruby.network.routers16.buffer_reads         6226                       (Unspecified)
system.ruby.network.routers16.buffer_writes         6226                       (Unspecified)
system.ruby.network.routers16.crossbar_activity         6226                       (Unspecified)
system.ruby.network.routers16.sw_input_arbiter_activity         6226                       (Unspecified)
system.ruby.network.routers16.sw_output_arbiter_activity         6226                       (Unspecified)
system.ruby.network.routers17.buffer_reads         6162                       (Unspecified)
system.ruby.network.routers17.buffer_writes         6162                       (Unspecified)
system.ruby.network.routers17.crossbar_activity         6162                       (Unspecified)
system.ruby.network.routers17.sw_input_arbiter_activity         6162                       (Unspecified)
system.ruby.network.routers17.sw_output_arbiter_activity         6162                       (Unspecified)
system.ruby.network.routers18.buffer_reads         6142                       (Unspecified)
system.ruby.network.routers18.buffer_writes         6142                       (Unspecified)
system.ruby.network.routers18.crossbar_activity         6142                       (Unspecified)
system.ruby.network.routers18.sw_input_arbiter_activity         6142                       (Unspecified)
system.ruby.network.routers18.sw_output_arbiter_activity         6142                       (Unspecified)
system.ruby.network.routers19.buffer_reads         6488                       (Unspecified)
system.ruby.network.routers19.buffer_writes         6488                       (Unspecified)
system.ruby.network.routers19.crossbar_activity         6488                       (Unspecified)
system.ruby.network.routers19.sw_input_arbiter_activity         6488                       (Unspecified)
system.ruby.network.routers19.sw_output_arbiter_activity         6488                       (Unspecified)
system.ruby.network.routers20.buffer_reads         6188                       (Unspecified)
system.ruby.network.routers20.buffer_writes         6188                       (Unspecified)
system.ruby.network.routers20.crossbar_activity         6188                       (Unspecified)
system.ruby.network.routers20.sw_input_arbiter_activity         6188                       (Unspecified)
system.ruby.network.routers20.sw_output_arbiter_activity         6188                       (Unspecified)
system.ruby.network.routers21.buffer_reads         5764                       (Unspecified)
system.ruby.network.routers21.buffer_writes         5764                       (Unspecified)
system.ruby.network.routers21.crossbar_activity         5764                       (Unspecified)
system.ruby.network.routers21.sw_input_arbiter_activity         5764                       (Unspecified)
system.ruby.network.routers21.sw_output_arbiter_activity         5764                       (Unspecified)
system.ruby.network.routers22.buffer_reads         5650                       (Unspecified)
system.ruby.network.routers22.buffer_writes         5650                       (Unspecified)
system.ruby.network.routers22.crossbar_activity         5650                       (Unspecified)
system.ruby.network.routers22.sw_input_arbiter_activity         5650                       (Unspecified)
system.ruby.network.routers22.sw_output_arbiter_activity         5650                       (Unspecified)
system.ruby.network.routers23.buffer_reads         6100                       (Unspecified)
system.ruby.network.routers23.buffer_writes         6100                       (Unspecified)
system.ruby.network.routers23.crossbar_activity         6100                       (Unspecified)
system.ruby.network.routers23.sw_input_arbiter_activity         6100                       (Unspecified)
system.ruby.network.routers23.sw_output_arbiter_activity         6100                       (Unspecified)
system.ruby.network.routers24.buffer_reads         5820                       (Unspecified)
system.ruby.network.routers24.buffer_writes         5820                       (Unspecified)
system.ruby.network.routers24.crossbar_activity         5820                       (Unspecified)
system.ruby.network.routers24.sw_input_arbiter_activity         5820                       (Unspecified)
system.ruby.network.routers24.sw_output_arbiter_activity         5820                       (Unspecified)
system.ruby.network.routers25.buffer_reads         6062                       (Unspecified)
system.ruby.network.routers25.buffer_writes         6062                       (Unspecified)
system.ruby.network.routers25.crossbar_activity         6062                       (Unspecified)
system.ruby.network.routers25.sw_input_arbiter_activity         6062                       (Unspecified)
system.ruby.network.routers25.sw_output_arbiter_activity         6062                       (Unspecified)
system.ruby.network.routers26.buffer_reads         5990                       (Unspecified)
system.ruby.network.routers26.buffer_writes         5990                       (Unspecified)
system.ruby.network.routers26.crossbar_activity         5990                       (Unspecified)
system.ruby.network.routers26.sw_input_arbiter_activity         5990                       (Unspecified)
system.ruby.network.routers26.sw_output_arbiter_activity         5990                       (Unspecified)
system.ruby.network.routers27.buffer_reads         5648                       (Unspecified)
system.ruby.network.routers27.buffer_writes         5648                       (Unspecified)
system.ruby.network.routers27.crossbar_activity         5648                       (Unspecified)
system.ruby.network.routers27.sw_input_arbiter_activity         5648                       (Unspecified)
system.ruby.network.routers27.sw_output_arbiter_activity         5648                       (Unspecified)
system.ruby.network.routers28.buffer_reads         5754                       (Unspecified)
system.ruby.network.routers28.buffer_writes         5754                       (Unspecified)
system.ruby.network.routers28.crossbar_activity         5754                       (Unspecified)
system.ruby.network.routers28.sw_input_arbiter_activity         5754                       (Unspecified)
system.ruby.network.routers28.sw_output_arbiter_activity         5754                       (Unspecified)
system.ruby.network.routers29.buffer_reads         5650                       (Unspecified)
system.ruby.network.routers29.buffer_writes         5650                       (Unspecified)
system.ruby.network.routers29.crossbar_activity         5650                       (Unspecified)
system.ruby.network.routers29.sw_input_arbiter_activity         5650                       (Unspecified)
system.ruby.network.routers29.sw_output_arbiter_activity         5650                       (Unspecified)
system.ruby.network.routers30.buffer_reads         6338                       (Unspecified)
system.ruby.network.routers30.buffer_writes         6338                       (Unspecified)
system.ruby.network.routers30.crossbar_activity         6338                       (Unspecified)
system.ruby.network.routers30.sw_input_arbiter_activity         6338                       (Unspecified)
system.ruby.network.routers30.sw_output_arbiter_activity         6338                       (Unspecified)
system.ruby.network.routers31.buffer_reads         6558                       (Unspecified)
system.ruby.network.routers31.buffer_writes         6558                       (Unspecified)
system.ruby.network.routers31.crossbar_activity         6558                       (Unspecified)
system.ruby.network.routers31.sw_input_arbiter_activity         6558                       (Unspecified)
system.ruby.network.routers31.sw_output_arbiter_activity         6558                       (Unspecified)
system.ruby.network.routers32.buffer_reads        97815                       (Unspecified)
system.ruby.network.routers32.buffer_writes        97815                       (Unspecified)
system.ruby.network.routers32.crossbar_activity        97815                       (Unspecified)
system.ruby.network.routers32.sw_input_arbiter_activity        97815                       (Unspecified)
system.ruby.network.routers32.sw_output_arbiter_activity        97815                       (Unspecified)

---------- End Simulation Statistics   ----------
